Global frequency set at 1000000000000 ticks per second
gem5 Simulator System.  https://www.gem5.org
gem5 is copyrighted software; use the --copyright option for details.

gem5 version 22.1.0.0
gem5 compiled Dec  7 2023 22:29:27
gem5 started Dec  7 2023 22:31:49
gem5 executing on barolo, pid 2110072
command line: build/X86/gem5.opt --debug-flags=PolicyManager configs/learning_gem5/part1/disaggregated_dram_cache_script.py

Beginning simulation!
  23000: system.mem_ctrl: recvTimingReq: request ReadSharedReq addr 0x3c40 size 64
  23000: system.mem_ctrl: NS: For Address 15424 | Predicted Compressible = 0| IsHit = 0
  23000: system.mem_ctrl: NS: For Address 15424 | Adding normal tag for set index = 241
  23000: system.mem_ctrl: Policy manager accepted packet 15424
  23000: system.mem_ctrl: loc mem read is sent : 15424
  78000: system.mem_ctrl: locMemRecvTimingResp : 15424
  78000: system.mem_ctrl: far mem read is sent : 15424
 129652: system.mem_ctrl: farMemRecvTimingResp : 15424 , ReadResp 
 129652: system.mem_ctrl: farMemRecvTimingResp : continuing to far read resp: 1
 129652: system.mem_ctrl: Responding to Address 15424 
 129652: system.mem_ctrl: latencyFactor = 1 
 129652: system.mem_ctrl: Done
 129652: system.mem_ctrl: loc mem write is sent : 15424
 139652: system.mem_ctrl: locMemRecvTimingResp : 15424
 220000: system.mem_ctrl: recvTimingReq: request ReadSharedReq addr 0x518d80 size 64
 220000: system.mem_ctrl: NS: For Address 5344640 | Checking normal tag | isHit = 0
 220000: system.mem_ctrl: NS: For Address 5344640 | Predicted Compressible = 1| IsHit = 0
 220000: system.mem_ctrl: NS: For Address 5344640 | Adding tagBai for set index = 41755 and compressed index = 0
 220000: system.mem_ctrl: Policy manager accepted packet 5344640
 220000: system.mem_ctrl: loc mem read is sent : 5344640
 275000: system.mem_ctrl: locMemRecvTimingResp : 5344640
 275000: system.mem_ctrl: far mem read is sent : 5344640
 326652: system.mem_ctrl: farMemRecvTimingResp : 5344640 , ReadResp 
 326652: system.mem_ctrl: farMemRecvTimingResp : continuing to far read resp: 1
 326652: system.mem_ctrl: Responding to Address 5344640 
 326652: system.mem_ctrl: latencyFactor = 1 
 326652: system.mem_ctrl: Done
 326652: system.mem_ctrl: loc mem write is sent : 5344640
 336652: system.mem_ctrl: locMemRecvTimingResp : 5344640
 433000: system.mem_ctrl: recvTimingReq: request ReadSharedReq addr 0x3c80 size 64
 433000: system.mem_ctrl: NS: For Address 15488 | Checking normal tag | isHit = 0
 433000: system.mem_ctrl: NS: For Address 15488 | Predicted Compressible = 1| IsHit = 0
 433000: system.mem_ctrl: NS: For Address 15488 | Adding tagBai for set index = 121 and compressed index = 0
 433000: system.mem_ctrl: Policy manager accepted packet 15488
 433000: system.mem_ctrl: loc mem read is sent : 15488
 488000: system.mem_ctrl: locMemRecvTimingResp : 15488
 488000: system.mem_ctrl: far mem read is sent : 15488
 525492: system.mem_ctrl: farMemRecvTimingResp : 15488 , ReadResp 
 525492: system.mem_ctrl: farMemRecvTimingResp : continuing to far read resp: 1
 525492: system.mem_ctrl: Responding to Address 15488 
 525492: system.mem_ctrl: latencyFactor = 1 
 525492: system.mem_ctrl: Done
 525492: system.mem_ctrl: loc mem write is sent : 15488
 535492: system.mem_ctrl: locMemRecvTimingResp : 15488
 622000: system.mem_ctrl: recvTimingReq: request ReadSharedReq addr 0x2908c0 size 64
 622000: system.mem_ctrl: NS: For Address 2689216 | Predicted Compressible = 0| IsHit = 0
 622000: system.mem_ctrl: NS: For Address 2689216 | Adding normal tag for set index = 42019
 622000: system.mem_ctrl: Policy manager accepted packet 2689216
 622000: system.mem_ctrl: loc mem read is sent : 2689216
 677000: system.mem_ctrl: locMemRecvTimingResp : 2689216
 677000: system.mem_ctrl: far mem read is sent : 2689216
 728652: system.mem_ctrl: farMemRecvTimingResp : 2689216 , ReadResp 
 728652: system.mem_ctrl: farMemRecvTimingResp : continuing to far read resp: 1
 728652: system.mem_ctrl: Responding to Address 2689216 
 728652: system.mem_ctrl: latencyFactor = 1 
 728652: system.mem_ctrl: Done
 728652: system.mem_ctrl: loc mem write is sent : 2689216
 738652: system.mem_ctrl: locMemRecvTimingResp : 2689216
 835000: system.mem_ctrl: recvTimingReq: request ReadExReq addr 0x518d40 size 64
 835000: system.mem_ctrl: NS: For Address 5344576 | Predicted Compressible = 0| IsHit = 0
 835000: system.mem_ctrl: NS: For Address 5344576 | Adding normal tag for set index = 83509
 835000: system.mem_ctrl: Policy manager accepted packet 5344576
 835000: system.mem_ctrl: loc mem read is sent : 5344576
 890000: system.mem_ctrl: locMemRecvTimingResp : 5344576
 890000: system.mem_ctrl: far mem read is sent : 5344576
 927492: system.mem_ctrl: farMemRecvTimingResp : 5344576 , ReadResp 
 927492: system.mem_ctrl: farMemRecvTimingResp : continuing to far read resp: 1
 927492: system.mem_ctrl: Responding to Address 5344576 
 927492: system.mem_ctrl: latencyFactor = 1 
 927492: system.mem_ctrl: Done
 927492: system.mem_ctrl: loc mem write is sent : 5344576
 937492: system.mem_ctrl: locMemRecvTimingResp : 5344576
1026000: system.mem_ctrl: recvTimingReq: request ReadExReq addr 0x518cc0 size 64
1026000: system.mem_ctrl: NS: For Address 5344448 | Predicted Compressible = 0| IsHit = 0
1026000: system.mem_ctrl: NS: For Address 5344448 | Adding normal tag for set index = 83507
1026000: system.mem_ctrl: Policy manager accepted packet 5344448
1026000: system.mem_ctrl: loc mem read is sent : 5344448
1081000: system.mem_ctrl: locMemRecvTimingResp : 5344448
1081000: system.mem_ctrl: far mem read is sent : 5344448
1118492: system.mem_ctrl: farMemRecvTimingResp : 5344448 , ReadResp 
1118492: system.mem_ctrl: farMemRecvTimingResp : continuing to far read resp: 1
1118492: system.mem_ctrl: Responding to Address 5344448 
1118492: system.mem_ctrl: latencyFactor = 1 
1118492: system.mem_ctrl: Done
1118492: system.mem_ctrl: loc mem write is sent : 5344448
1128492: system.mem_ctrl: locMemRecvTimingResp : 5344448
1217000: system.mem_ctrl: recvTimingReq: request ReadSharedReq addr 0x290900 size 64
1217000: system.mem_ctrl: NS: For Address 2689280 | Checking normal tag | isHit = 0
1217000: system.mem_ctrl: NS: For Address 2689280 | Predicted Compressible = 1| IsHit = 0
1217000: system.mem_ctrl: NS: For Address 2689280 | Adding tagBai for set index = 21010 and compressed index = 0
1217000: system.mem_ctrl: Policy manager accepted packet 2689280
1217000: system.mem_ctrl: loc mem read is sent : 2689280
1272000: system.mem_ctrl: locMemRecvTimingResp : 2689280
1272000: system.mem_ctrl: far mem read is sent : 2689280
1309492: system.mem_ctrl: farMemRecvTimingResp : 2689280 , ReadResp 
1309492: system.mem_ctrl: farMemRecvTimingResp : continuing to far read resp: 1
1309492: system.mem_ctrl: Responding to Address 2689280 
1309492: system.mem_ctrl: latencyFactor = 1 
1309492: system.mem_ctrl: Done
1309492: system.mem_ctrl: loc mem write is sent : 2689280
1319492: system.mem_ctrl: locMemRecvTimingResp : 2689280
1396000: system.mem_ctrl: recvTimingReq: request ReadSharedReq addr 0x290a40 size 64
1396000: system.mem_ctrl: NS: For Address 2689600 | Predicted Compressible = 0| IsHit = 0
1396000: system.mem_ctrl: NS: For Address 2689600 | Adding normal tag for set index = 42025
1396000: system.mem_ctrl: Policy manager accepted packet 2689600
1396000: system.mem_ctrl: loc mem read is sent : 2689600
1451000: system.mem_ctrl: locMemRecvTimingResp : 2689600
1451000: system.mem_ctrl: far mem read is sent : 2689600
1488492: system.mem_ctrl: farMemRecvTimingResp : 2689600 , ReadResp 
1488492: system.mem_ctrl: farMemRecvTimingResp : continuing to far read resp: 1
1488492: system.mem_ctrl: Responding to Address 2689600 
1488492: system.mem_ctrl: latencyFactor = 1 
1488492: system.mem_ctrl: Done
1488492: system.mem_ctrl: loc mem write is sent : 2689600
1498492: system.mem_ctrl: locMemRecvTimingResp : 2689600
1583000: system.mem_ctrl: recvTimingReq: request ReadExReq addr 0x45aec0 size 64
1583000: system.mem_ctrl: NS: For Address 4566720 | Predicted Compressible = 0| IsHit = 0
1583000: system.mem_ctrl: NS: For Address 4566720 | Adding normal tag for set index = 71355
1583000: system.mem_ctrl: Policy manager accepted packet 4566720
1583000: system.mem_ctrl: loc mem read is sent : 4566720
1638000: system.mem_ctrl: locMemRecvTimingResp : 4566720
1638000: system.mem_ctrl: far mem read is sent : 4566720
1689652: system.mem_ctrl: farMemRecvTimingResp : 4566720 , ReadResp 
1689652: system.mem_ctrl: farMemRecvTimingResp : continuing to far read resp: 1
1689652: system.mem_ctrl: Responding to Address 4566720 
1689652: system.mem_ctrl: latencyFactor = 1 
1689652: system.mem_ctrl: Done
1689652: system.mem_ctrl: loc mem write is sent : 4566720
1699652: system.mem_ctrl: locMemRecvTimingResp : 4566720
1800000: system.mem_ctrl: recvTimingReq: request ReadExReq addr 0x4e76c0 size 64
1800000: system.mem_ctrl: NS: For Address 5142208 | Predicted Compressible = 0| IsHit = 0
1800000: system.mem_ctrl: NS: For Address 5142208 | Adding normal tag for set index = 80347
1800000: system.mem_ctrl: Policy manager accepted packet 5142208
1800000: system.mem_ctrl: loc mem read is sent : 5142208
1855000: system.mem_ctrl: locMemRecvTimingResp : 5142208
1855000: system.mem_ctrl: far mem read is sent : 5142208
1906652: system.mem_ctrl: farMemRecvTimingResp : 5142208 , ReadResp 
1906652: system.mem_ctrl: farMemRecvTimingResp : continuing to far read resp: 1
1906652: system.mem_ctrl: Responding to Address 5142208 
1906652: system.mem_ctrl: latencyFactor = 1 
1906652: system.mem_ctrl: Done
1906652: system.mem_ctrl: loc mem write is sent : 5142208
1916652: system.mem_ctrl: locMemRecvTimingResp : 5142208
1997000: system.mem_ctrl: recvTimingReq: request ReadExReq addr 0x457f40 size 64
1997000: system.mem_ctrl: NS: For Address 4554560 | Predicted Compressible = 0| IsHit = 0
1997000: system.mem_ctrl: NS: For Address 4554560 | Adding normal tag for set index = 71165
1997000: system.mem_ctrl: Policy manager accepted packet 4554560
1997000: system.mem_ctrl: loc mem read is sent : 4554560
2052000: system.mem_ctrl: locMemRecvTimingResp : 4554560
2052000: system.mem_ctrl: far mem read is sent : 4554560
2103652: system.mem_ctrl: farMemRecvTimingResp : 4554560 , ReadResp 
2103652: system.mem_ctrl: farMemRecvTimingResp : continuing to far read resp: 1
2103652: system.mem_ctrl: Responding to Address 4554560 
2103652: system.mem_ctrl: latencyFactor = 1 
2103652: system.mem_ctrl: Done
2103652: system.mem_ctrl: loc mem write is sent : 4554560
2113652: system.mem_ctrl: locMemRecvTimingResp : 4554560
2192000: system.mem_ctrl: recvTimingReq: request ReadSharedReq addr 0x290940 size 64
2192000: system.mem_ctrl: NS: For Address 2689344 | Predicted Compressible = 0| IsHit = 0
2192000: system.mem_ctrl: NS: For Address 2689344 | Adding normal tag for set index = 42021
2192000: system.mem_ctrl: Policy manager accepted packet 2689344
2192000: system.mem_ctrl: loc mem read is sent : 2689344
2247000: system.mem_ctrl: locMemRecvTimingResp : 2689344
2247000: system.mem_ctrl: far mem read is sent : 2689344
2284492: system.mem_ctrl: farMemRecvTimingResp : 2689344 , ReadResp 
2284492: system.mem_ctrl: farMemRecvTimingResp : continuing to far read resp: 1
2284492: system.mem_ctrl: Responding to Address 2689344 
2284492: system.mem_ctrl: latencyFactor = 1 
2284492: system.mem_ctrl: Done
2284492: system.mem_ctrl: loc mem write is sent : 2689344
2294492: system.mem_ctrl: locMemRecvTimingResp : 2689344
2371000: system.mem_ctrl: recvTimingReq: request ReadSharedReq addr 0x518dc0 size 64
2371000: system.mem_ctrl: NS: For Address 5344704 | Predicted Compressible = 0| IsHit = 0
2371000: system.mem_ctrl: NS: For Address 5344704 | Adding normal tag for set index = 83511
2371000: system.mem_ctrl: Policy manager accepted packet 5344704
2371000: system.mem_ctrl: loc mem read is sent : 5344704
2426000: system.mem_ctrl: locMemRecvTimingResp : 5344704
2426000: system.mem_ctrl: far mem read is sent : 5344704
2463492: system.mem_ctrl: farMemRecvTimingResp : 5344704 , ReadResp 
2463492: system.mem_ctrl: farMemRecvTimingResp : continuing to far read resp: 1
2463492: system.mem_ctrl: Responding to Address 5344704 
2463492: system.mem_ctrl: latencyFactor = 1 
2463492: system.mem_ctrl: Done
2463492: system.mem_ctrl: loc mem write is sent : 5344704
2473492: system.mem_ctrl: locMemRecvTimingResp : 5344704
2564000: system.mem_ctrl: recvTimingReq: request ReadSharedReq addr 0x2c2500 size 64
2564000: system.mem_ctrl: NS: For Address 2893056 | Checking normal tag | isHit = 0
2564000: system.mem_ctrl: NS: For Address 2893056 | Predicted Compressible = 1| IsHit = 0
2564000: system.mem_ctrl: NS: For Address 2893056 | Adding tagBai for set index = 22602 and compressed index = 0
2564000: system.mem_ctrl: Policy manager accepted packet 2893056
2564000: system.mem_ctrl: loc mem read is sent : 2893056
2619000: system.mem_ctrl: locMemRecvTimingResp : 2893056
2619000: system.mem_ctrl: far mem read is sent : 2893056
2684812: system.mem_ctrl: farMemRecvTimingResp : 2893056 , ReadResp 
2684812: system.mem_ctrl: farMemRecvTimingResp : continuing to far read resp: 1
2684812: system.mem_ctrl: Responding to Address 2893056 
2684812: system.mem_ctrl: latencyFactor = 1 
2684812: system.mem_ctrl: Done
2684812: system.mem_ctrl: loc mem write is sent : 2893056
2694812: system.mem_ctrl: locMemRecvTimingResp : 2893056
2779000: system.mem_ctrl: recvTimingReq: request ReadExReq addr 0x518c80 size 64
2779000: system.mem_ctrl: NS: For Address 5344384 | Checking normal tag | isHit = 0
2779000: system.mem_ctrl: NS: For Address 5344384 | Predicted Compressible = 1| IsHit = 0
2779000: system.mem_ctrl: NS: For Address 5344384 | Adding tagBai for set index = 41753 and compressed index = 0
2779000: system.mem_ctrl: Policy manager accepted packet 5344384
2779000: system.mem_ctrl: loc mem read is sent : 5344384
2834000: system.mem_ctrl: locMemRecvTimingResp : 5344384
2834000: system.mem_ctrl: far mem read is sent : 5344384
2871492: system.mem_ctrl: farMemRecvTimingResp : 5344384 , ReadResp 
2871492: system.mem_ctrl: farMemRecvTimingResp : continuing to far read resp: 1
2871492: system.mem_ctrl: Responding to Address 5344384 
2871492: system.mem_ctrl: latencyFactor = 1 
2871492: system.mem_ctrl: Done
2871492: system.mem_ctrl: loc mem write is sent : 5344384
2881492: system.mem_ctrl: locMemRecvTimingResp : 5344384
2988000: system.mem_ctrl: recvTimingReq: request ReadSharedReq addr 0x2c2540 size 64
2988000: system.mem_ctrl: NS: For Address 2893120 | Predicted Compressible = 0| IsHit = 0
2988000: system.mem_ctrl: NS: For Address 2893120 | Adding normal tag for set index = 45205
2988000: system.mem_ctrl: Policy manager accepted packet 2893120
2988000: system.mem_ctrl: loc mem read is sent : 2893120
3043000: system.mem_ctrl: locMemRecvTimingResp : 2893120
3043000: system.mem_ctrl: far mem read is sent : 2893120
3080492: system.mem_ctrl: farMemRecvTimingResp : 2893120 , ReadResp 
3080492: system.mem_ctrl: farMemRecvTimingResp : continuing to far read resp: 1
3080492: system.mem_ctrl: Responding to Address 2893120 
3080492: system.mem_ctrl: latencyFactor = 1 
3080492: system.mem_ctrl: Done
3080492: system.mem_ctrl: loc mem write is sent : 2893120
3090492: system.mem_ctrl: locMemRecvTimingResp : 2893120
3167000: system.mem_ctrl: recvTimingReq: request ReadSharedReq addr 0x45ae80 size 64
3167000: system.mem_ctrl: NS: For Address 4566656 | Checking normal tag | isHit = 0
3167000: system.mem_ctrl: NS: For Address 4566656 | Predicted Compressible = 1| IsHit = 0
3167000: system.mem_ctrl: NS: For Address 4566656 | Adding tagBai for set index = 35677 and compressed index = 0
3167000: system.mem_ctrl: Policy manager accepted packet 4566656
3167000: system.mem_ctrl: loc mem read is sent : 4566656
3222000: system.mem_ctrl: locMemRecvTimingResp : 4566656
3222000: system.mem_ctrl: far mem read is sent : 4566656
3259492: system.mem_ctrl: farMemRecvTimingResp : 4566656 , ReadResp 
3259492: system.mem_ctrl: farMemRecvTimingResp : continuing to far read resp: 1
3259492: system.mem_ctrl: Responding to Address 4566656 
3259492: system.mem_ctrl: latencyFactor = 1 
3259492: system.mem_ctrl: Done
3259492: system.mem_ctrl: loc mem write is sent : 4566656
3269492: system.mem_ctrl: locMemRecvTimingResp : 4566656
3350000: system.mem_ctrl: recvTimingReq: request ReadSharedReq addr 0x5170c0 size 64
3350000: system.mem_ctrl: NS: For Address 5337280 | Predicted Compressible = 0| IsHit = 0
3350000: system.mem_ctrl: NS: For Address 5337280 | Adding normal tag for set index = 83395
3350000: system.mem_ctrl: Policy manager accepted packet 5337280
3350000: system.mem_ctrl: loc mem read is sent : 5337280
3405000: system.mem_ctrl: locMemRecvTimingResp : 5337280
3405000: system.mem_ctrl: far mem read is sent : 5337280
3470812: system.mem_ctrl: farMemRecvTimingResp : 5337280 , ReadResp 
3470812: system.mem_ctrl: farMemRecvTimingResp : continuing to far read resp: 1
3470812: system.mem_ctrl: Responding to Address 5337280 
3470812: system.mem_ctrl: latencyFactor = 1 
3470812: system.mem_ctrl: Done
3470812: system.mem_ctrl: loc mem write is sent : 5337280
3480812: system.mem_ctrl: locMemRecvTimingResp : 5337280
3561000: system.mem_ctrl: recvTimingReq: request ReadSharedReq addr 0x517180 size 64
3561000: system.mem_ctrl: NS: For Address 5337472 | Checking normal tag | isHit = 0
3561000: system.mem_ctrl: NS: For Address 5337472 | Predicted Compressible = 1| IsHit = 0
3561000: system.mem_ctrl: NS: For Address 5337472 | Adding tagBai for set index = 41699 and compressed index = 0
3561000: system.mem_ctrl: Policy manager accepted packet 5337472
3561000: system.mem_ctrl: loc mem read is sent : 5337472
3616000: system.mem_ctrl: locMemRecvTimingResp : 5337472
3616000: system.mem_ctrl: far mem read is sent : 5337472
3653492: system.mem_ctrl: farMemRecvTimingResp : 5337472 , ReadResp 
3653492: system.mem_ctrl: farMemRecvTimingResp : continuing to far read resp: 1
3653492: system.mem_ctrl: Responding to Address 5337472 
3653492: system.mem_ctrl: latencyFactor = 1 
3653492: system.mem_ctrl: Done
3653492: system.mem_ctrl: loc mem write is sent : 5337472
3663492: system.mem_ctrl: locMemRecvTimingResp : 5337472
3746000: system.mem_ctrl: recvTimingReq: request ReadSharedReq addr 0x517040 size 64
3746000: system.mem_ctrl: NS: For Address 5337152 | Predicted Compressible = 0| IsHit = 0
3746000: system.mem_ctrl: NS: For Address 5337152 | Adding normal tag for set index = 83393
3746000: system.mem_ctrl: Policy manager accepted packet 5337152
3746000: system.mem_ctrl: loc mem read is sent : 5337152
3801000: system.mem_ctrl: locMemRecvTimingResp : 5337152
3801000: system.mem_ctrl: far mem read is sent : 5337152
3838492: system.mem_ctrl: farMemRecvTimingResp : 5337152 , ReadResp 
3838492: system.mem_ctrl: farMemRecvTimingResp : continuing to far read resp: 1
3838492: system.mem_ctrl: Responding to Address 5337152 
3838492: system.mem_ctrl: latencyFactor = 1 
3838492: system.mem_ctrl: Done
3838492: system.mem_ctrl: loc mem write is sent : 5337152
3848492: system.mem_ctrl: locMemRecvTimingResp : 5337152
3927000: system.mem_ctrl: recvTimingReq: request ReadSharedReq addr 0x4e8100 size 64
3927000: system.mem_ctrl: NS: For Address 5144832 | Checking normal tag | isHit = 0
3927000: system.mem_ctrl: NS: For Address 5144832 | Predicted Compressible = 1| IsHit = 0
3927000: system.mem_ctrl: NS: For Address 5144832 | Adding tagBai for set index = 40194 and compressed index = 0
3927000: system.mem_ctrl: Policy manager accepted packet 5144832
3927000: system.mem_ctrl: loc mem read is sent : 5144832
4161000: system.mem_ctrl: locMemRecvTimingResp : 5144832
4161000: system.mem_ctrl: far mem read is sent : 5144832
4212652: system.mem_ctrl: farMemRecvTimingResp : 5144832 , ReadResp 
4212652: system.mem_ctrl: farMemRecvTimingResp : continuing to far read resp: 1
4212652: system.mem_ctrl: Responding to Address 5144832 
4212652: system.mem_ctrl: latencyFactor = 1 
4212652: system.mem_ctrl: Done
4212652: system.mem_ctrl: loc mem write is sent : 5144832
4222652: system.mem_ctrl: locMemRecvTimingResp : 5144832
4307000: system.mem_ctrl: recvTimingReq: request ReadSharedReq addr 0x517080 size 64
4307000: system.mem_ctrl: NS: For Address 5337216 | Checking normal tag | isHit = 0
4307000: system.mem_ctrl: NS: For Address 5337216 | Predicted Compressible = 1| IsHit = 0
4307000: system.mem_ctrl: NS: For Address 5337216 | Adding tagBai for set index = 41697 and compressed index = 0
4307000: system.mem_ctrl: Policy manager accepted packet 5337216
4307000: system.mem_ctrl: loc mem read is sent : 5337216
4362000: system.mem_ctrl: locMemRecvTimingResp : 5337216
4362000: system.mem_ctrl: far mem read is sent : 5337216
4399492: system.mem_ctrl: farMemRecvTimingResp : 5337216 , ReadResp 
4399492: system.mem_ctrl: farMemRecvTimingResp : continuing to far read resp: 1
4399492: system.mem_ctrl: Responding to Address 5337216 
4399492: system.mem_ctrl: latencyFactor = 1 
4399492: system.mem_ctrl: Done
4399492: system.mem_ctrl: loc mem write is sent : 5337216
4409492: system.mem_ctrl: locMemRecvTimingResp : 5337216
4494000: system.mem_ctrl: recvTimingReq: request ReadSharedReq addr 0x2c2580 size 64
4494000: system.mem_ctrl: NS: For Address 2893184 | Checking normal tag | isHit = 0
4494000: system.mem_ctrl: NS: For Address 2893184 | Predicted Compressible = 1| IsHit = 0
4494000: system.mem_ctrl: NS: For Address 2893184 | Adding tagBai for set index = 22603 and compressed index = 0
4494000: system.mem_ctrl: Policy manager accepted packet 2893184
4494000: system.mem_ctrl: loc mem read is sent : 2893184
4549000: system.mem_ctrl: locMemRecvTimingResp : 2893184
4549000: system.mem_ctrl: far mem read is sent : 2893184
4586492: system.mem_ctrl: farMemRecvTimingResp : 2893184 , ReadResp 
4586492: system.mem_ctrl: farMemRecvTimingResp : continuing to far read resp: 1
4586492: system.mem_ctrl: Responding to Address 2893184 
4586492: system.mem_ctrl: latencyFactor = 1 
4586492: system.mem_ctrl: Done
4586492: system.mem_ctrl: loc mem write is sent : 2893184
4596492: system.mem_ctrl: locMemRecvTimingResp : 2893184
4673000: system.mem_ctrl: recvTimingReq: request ReadSharedReq addr 0x5171c0 size 64
4673000: system.mem_ctrl: NS: For Address 5337536 | Predicted Compressible = 0| IsHit = 0
4673000: system.mem_ctrl: NS: For Address 5337536 | Adding normal tag for set index = 83399
4673000: system.mem_ctrl: Policy manager accepted packet 5337536
4673000: system.mem_ctrl: loc mem read is sent : 5337536
4728000: system.mem_ctrl: locMemRecvTimingResp : 5337536
4728000: system.mem_ctrl: far mem read is sent : 5337536
4765492: system.mem_ctrl: farMemRecvTimingResp : 5337536 , ReadResp 
4765492: system.mem_ctrl: farMemRecvTimingResp : continuing to far read resp: 1
4765492: system.mem_ctrl: Responding to Address 5337536 
4765492: system.mem_ctrl: latencyFactor = 1 
4765492: system.mem_ctrl: Done
4765492: system.mem_ctrl: loc mem write is sent : 5337536
4775492: system.mem_ctrl: locMemRecvTimingResp : 5337536
4872000: system.mem_ctrl: recvTimingReq: request ReadSharedReq addr 0x3fce40 size 64
4872000: system.mem_ctrl: NS: For Address 4181568 | Predicted Compressible = 0| IsHit = 0
4872000: system.mem_ctrl: NS: For Address 4181568 | Adding normal tag for set index = 65337
4872000: system.mem_ctrl: Policy manager accepted packet 4181568
4872000: system.mem_ctrl: loc mem read is sent : 4181568
4927000: system.mem_ctrl: locMemRecvTimingResp : 4181568
4927000: system.mem_ctrl: far mem read is sent : 4181568
4978652: system.mem_ctrl: farMemRecvTimingResp : 4181568 , ReadResp 
4978652: system.mem_ctrl: farMemRecvTimingResp : continuing to far read resp: 1
4978652: system.mem_ctrl: Responding to Address 4181568 
4978652: system.mem_ctrl: latencyFactor = 1 
4978652: system.mem_ctrl: Done
4978652: system.mem_ctrl: loc mem write is sent : 4181568
4988652: system.mem_ctrl: locMemRecvTimingResp : 4181568
5065000: system.mem_ctrl: recvTimingReq: request ReadSharedReq addr 0x2c2640 size 64
5065000: system.mem_ctrl: NS: For Address 2893376 | Predicted Compressible = 0| IsHit = 0
5065000: system.mem_ctrl: NS: For Address 2893376 | Adding normal tag for set index = 45209
5065000: system.mem_ctrl: Policy manager accepted packet 2893376
5065000: system.mem_ctrl: loc mem read is sent : 2893376
5120000: system.mem_ctrl: locMemRecvTimingResp : 2893376
5120000: system.mem_ctrl: far mem read is sent : 2893376
5157492: system.mem_ctrl: farMemRecvTimingResp : 2893376 , ReadResp 
5157492: system.mem_ctrl: farMemRecvTimingResp : continuing to far read resp: 1
5157492: system.mem_ctrl: Responding to Address 2893376 
5157492: system.mem_ctrl: latencyFactor = 1 
5157492: system.mem_ctrl: Done
5157492: system.mem_ctrl: loc mem write is sent : 2893376
5167492: system.mem_ctrl: locMemRecvTimingResp : 2893376
5264000: system.mem_ctrl: recvTimingReq: request ReadSharedReq addr 0x2c25c0 size 64
5264000: system.mem_ctrl: NS: For Address 2893248 | Predicted Compressible = 0| IsHit = 0
5264000: system.mem_ctrl: NS: For Address 2893248 | Adding normal tag for set index = 45207
5264000: system.mem_ctrl: Policy manager accepted packet 2893248
5264000: system.mem_ctrl: loc mem read is sent : 2893248
5319000: system.mem_ctrl: locMemRecvTimingResp : 2893248
5319000: system.mem_ctrl: far mem read is sent : 2893248
5356492: system.mem_ctrl: farMemRecvTimingResp : 2893248 , ReadResp 
5356492: system.mem_ctrl: farMemRecvTimingResp : continuing to far read resp: 1
5356492: system.mem_ctrl: Responding to Address 2893248 
5356492: system.mem_ctrl: latencyFactor = 1 
5356492: system.mem_ctrl: Done
5356492: system.mem_ctrl: loc mem write is sent : 2893248
5366492: system.mem_ctrl: locMemRecvTimingResp : 2893248
5455000: system.mem_ctrl: recvTimingReq: request ReadSharedReq addr 0x3fcdc0 size 64
5455000: system.mem_ctrl: NS: For Address 4181440 | Predicted Compressible = 0| IsHit = 0
5455000: system.mem_ctrl: NS: For Address 4181440 | Adding normal tag for set index = 65335
5455000: system.mem_ctrl: Policy manager accepted packet 4181440
5455000: system.mem_ctrl: loc mem read is sent : 4181440
5510000: system.mem_ctrl: locMemRecvTimingResp : 4181440
5510000: system.mem_ctrl: far mem read is sent : 4181440
5547492: system.mem_ctrl: farMemRecvTimingResp : 4181440 , ReadResp 
5547492: system.mem_ctrl: farMemRecvTimingResp : continuing to far read resp: 1
5547492: system.mem_ctrl: Responding to Address 4181440 
5547492: system.mem_ctrl: latencyFactor = 1 
5547492: system.mem_ctrl: Done
5547492: system.mem_ctrl: loc mem write is sent : 4181440
5557492: system.mem_ctrl: locMemRecvTimingResp : 4181440
5634000: system.mem_ctrl: recvTimingReq: request ReadSharedReq addr 0x2c2680 size 64
5634000: system.mem_ctrl: NS: For Address 2893440 | Checking normal tag | isHit = 0
5634000: system.mem_ctrl: NS: For Address 2893440 | Predicted Compressible = 1| IsHit = 0
5634000: system.mem_ctrl: NS: For Address 2893440 | Adding tagBai for set index = 22605 and compressed index = 0
5634000: system.mem_ctrl: Policy manager accepted packet 2893440
5634000: system.mem_ctrl: loc mem read is sent : 2893440
5689000: system.mem_ctrl: locMemRecvTimingResp : 2893440
5689000: system.mem_ctrl: far mem read is sent : 2893440
5726492: system.mem_ctrl: farMemRecvTimingResp : 2893440 , ReadResp 
5726492: system.mem_ctrl: farMemRecvTimingResp : continuing to far read resp: 1
5726492: system.mem_ctrl: Responding to Address 2893440 
5726492: system.mem_ctrl: latencyFactor = 1 
5726492: system.mem_ctrl: Done
5726492: system.mem_ctrl: loc mem write is sent : 2893440
5736492: system.mem_ctrl: locMemRecvTimingResp : 2893440
5813000: system.mem_ctrl: recvTimingReq: request ReadSharedReq addr 0x518e00 size 64
5813000: system.mem_ctrl: NS: For Address 5344768 | Checking normal tag | isHit = 0
5813000: system.mem_ctrl: NS: For Address 5344768 | Predicted Compressible = 1| IsHit = 0
5813000: system.mem_ctrl: NS: For Address 5344768 | Adding tagBai for set index = 41756 and compressed index = 0
5813000: system.mem_ctrl: Policy manager accepted packet 5344768
5813000: system.mem_ctrl: loc mem read is sent : 5344768
5868000: system.mem_ctrl: locMemRecvTimingResp : 5344768
5868000: system.mem_ctrl: far mem read is sent : 5344768
5905492: system.mem_ctrl: farMemRecvTimingResp : 5344768 , ReadResp 
5905492: system.mem_ctrl: farMemRecvTimingResp : continuing to far read resp: 1
5905492: system.mem_ctrl: Responding to Address 5344768 
5905492: system.mem_ctrl: latencyFactor = 1 
5905492: system.mem_ctrl: Done
5905492: system.mem_ctrl: loc mem write is sent : 5344768
5915492: system.mem_ctrl: locMemRecvTimingResp : 5344768
6024000: system.mem_ctrl: recvTimingReq: request ReadSharedReq addr 0x3fcd80 size 64
6024000: system.mem_ctrl: NS: For Address 4181376 | Checking normal tag | isHit = 0
6024000: system.mem_ctrl: NS: For Address 4181376 | Predicted Compressible = 1| IsHit = 0
6024000: system.mem_ctrl: NS: For Address 4181376 | Adding tagBai for set index = 32667 and compressed index = 0
6024000: system.mem_ctrl: Policy manager accepted packet 4181376
6024000: system.mem_ctrl: loc mem read is sent : 4181376
6079000: system.mem_ctrl: locMemRecvTimingResp : 4181376
6079000: system.mem_ctrl: far mem read is sent : 4181376
6116492: system.mem_ctrl: farMemRecvTimingResp : 4181376 , ReadResp 
6116492: system.mem_ctrl: farMemRecvTimingResp : continuing to far read resp: 1
6116492: system.mem_ctrl: Responding to Address 4181376 
6116492: system.mem_ctrl: latencyFactor = 1 
6116492: system.mem_ctrl: Done
6116492: system.mem_ctrl: loc mem write is sent : 4181376
6126492: system.mem_ctrl: locMemRecvTimingResp : 4181376
6277000: system.mem_ctrl: recvTimingReq: request ReadSharedReq addr 0x2c26c0 size 64
6277000: system.mem_ctrl: NS: For Address 2893504 | Predicted Compressible = 0| IsHit = 0
6277000: system.mem_ctrl: NS: For Address 2893504 | Adding normal tag for set index = 45211
6277000: system.mem_ctrl: Policy manager accepted packet 2893504
6277000: system.mem_ctrl: loc mem read is sent : 2893504
6332000: system.mem_ctrl: locMemRecvTimingResp : 2893504
6332000: system.mem_ctrl: far mem read is sent : 2893504
6369492: system.mem_ctrl: farMemRecvTimingResp : 2893504 , ReadResp 
6369492: system.mem_ctrl: farMemRecvTimingResp : continuing to far read resp: 1
6369492: system.mem_ctrl: Responding to Address 2893504 
6369492: system.mem_ctrl: latencyFactor = 1 
6369492: system.mem_ctrl: Done
6369492: system.mem_ctrl: loc mem write is sent : 2893504
6379492: system.mem_ctrl: locMemRecvTimingResp : 2893504
6502000: system.mem_ctrl: recvTimingReq: request ReadSharedReq addr 0x518e40 size 64
6502000: system.mem_ctrl: NS: For Address 5344832 | Predicted Compressible = 0| IsHit = 0
6502000: system.mem_ctrl: NS: For Address 5344832 | Adding normal tag for set index = 83513
6502000: system.mem_ctrl: Policy manager accepted packet 5344832
6502000: system.mem_ctrl: loc mem read is sent : 5344832
6557000: system.mem_ctrl: locMemRecvTimingResp : 5344832
6557000: system.mem_ctrl: far mem read is sent : 5344832
6594492: system.mem_ctrl: farMemRecvTimingResp : 5344832 , ReadResp 
6594492: system.mem_ctrl: farMemRecvTimingResp : continuing to far read resp: 1
6594492: system.mem_ctrl: Responding to Address 5344832 
6594492: system.mem_ctrl: latencyFactor = 1 
6594492: system.mem_ctrl: Done
6594492: system.mem_ctrl: loc mem write is sent : 5344832
6604492: system.mem_ctrl: locMemRecvTimingResp : 5344832
6807000: system.mem_ctrl: recvTimingReq: request ReadSharedReq addr 0x518e80 size 64
6807000: system.mem_ctrl: NS: For Address 5344896 | Checking normal tag | isHit = 0
6807000: system.mem_ctrl: NS: For Address 5344896 | Predicted Compressible = 1| IsHit = 0
6807000: system.mem_ctrl: NS: For Address 5344896 | Adding tagBai for set index = 41757 and compressed index = 0
6807000: system.mem_ctrl: Policy manager accepted packet 5344896
6807000: system.mem_ctrl: loc mem read is sent : 5344896
6862000: system.mem_ctrl: locMemRecvTimingResp : 5344896
6862000: system.mem_ctrl: far mem read is sent : 5344896
6899492: system.mem_ctrl: farMemRecvTimingResp : 5344896 , ReadResp 
6899492: system.mem_ctrl: farMemRecvTimingResp : continuing to far read resp: 1
6899492: system.mem_ctrl: Responding to Address 5344896 
6899492: system.mem_ctrl: latencyFactor = 1 
6899492: system.mem_ctrl: Done
6899492: system.mem_ctrl: loc mem write is sent : 5344896
6909492: system.mem_ctrl: locMemRecvTimingResp : 5344896
7126000: system.mem_ctrl: recvTimingReq: request ReadSharedReq addr 0x518ec0 size 64
7126000: system.mem_ctrl: NS: For Address 5344960 | Predicted Compressible = 0| IsHit = 0
7126000: system.mem_ctrl: NS: For Address 5344960 | Adding normal tag for set index = 83515
7126000: system.mem_ctrl: Policy manager accepted packet 5344960
7126000: system.mem_ctrl: loc mem read is sent : 5344960
7181000: system.mem_ctrl: locMemRecvTimingResp : 5344960
7181000: system.mem_ctrl: far mem read is sent : 5344960
7218492: system.mem_ctrl: farMemRecvTimingResp : 5344960 , ReadResp 
7218492: system.mem_ctrl: farMemRecvTimingResp : continuing to far read resp: 1
7218492: system.mem_ctrl: Responding to Address 5344960 
7218492: system.mem_ctrl: latencyFactor = 1 
7218492: system.mem_ctrl: Done
7218492: system.mem_ctrl: loc mem write is sent : 5344960
7228492: system.mem_ctrl: locMemRecvTimingResp : 5344960
7339000: system.mem_ctrl: recvTimingReq: request ReadSharedReq addr 0x3fce00 size 64
7339000: system.mem_ctrl: NS: For Address 4181504 | Checking normal tag | isHit = 0
7339000: system.mem_ctrl: NS: For Address 4181504 | Predicted Compressible = 1| IsHit = 0
7339000: system.mem_ctrl: NS: For Address 4181504 | Adding tagBai for set index = 32668 and compressed index = 0
7339000: system.mem_ctrl: Policy manager accepted packet 4181504
7339000: system.mem_ctrl: loc mem read is sent : 4181504
7394000: system.mem_ctrl: locMemRecvTimingResp : 4181504
7394000: system.mem_ctrl: far mem read is sent : 4181504
7431492: system.mem_ctrl: farMemRecvTimingResp : 4181504 , ReadResp 
7431492: system.mem_ctrl: farMemRecvTimingResp : continuing to far read resp: 1
7431492: system.mem_ctrl: Responding to Address 4181504 
7431492: system.mem_ctrl: latencyFactor = 1 
7431492: system.mem_ctrl: Done
7431492: system.mem_ctrl: loc mem write is sent : 4181504
7441492: system.mem_ctrl: locMemRecvTimingResp : 4181504
7644000: system.mem_ctrl: recvTimingReq: request ReadSharedReq addr 0x518f00 size 64
7644000: system.mem_ctrl: NS: For Address 5345024 | Checking normal tag | isHit = 0
7644000: system.mem_ctrl: NS: For Address 5345024 | Predicted Compressible = 1| IsHit = 0
7644000: system.mem_ctrl: NS: For Address 5345024 | Adding tagBai for set index = 41758 and compressed index = 0
7644000: system.mem_ctrl: Policy manager accepted packet 5345024
7644000: system.mem_ctrl: loc mem read is sent : 5345024
7699000: system.mem_ctrl: locMemRecvTimingResp : 5345024
7699000: system.mem_ctrl: far mem read is sent : 5345024
7736492: system.mem_ctrl: farMemRecvTimingResp : 5345024 , ReadResp 
7736492: system.mem_ctrl: farMemRecvTimingResp : continuing to far read resp: 1
7736492: system.mem_ctrl: Responding to Address 5345024 
7736492: system.mem_ctrl: latencyFactor = 1 
7736492: system.mem_ctrl: Done
7736492: system.mem_ctrl: loc mem write is sent : 5345024
7746492: system.mem_ctrl: locMemRecvTimingResp : 5345024
7877000: system.mem_ctrl: recvTimingReq: request ReadSharedReq addr 0x2c2600 size 64
7877000: system.mem_ctrl: NS: For Address 2893312 | Checking normal tag | isHit = 0
7877000: system.mem_ctrl: NS: For Address 2893312 | Predicted Compressible = 1| IsHit = 0
7877000: system.mem_ctrl: NS: For Address 2893312 | Adding tagBai for set index = 22604 and compressed index = 0
7877000: system.mem_ctrl: Policy manager accepted packet 2893312
7877000: system.mem_ctrl: loc mem read is sent : 2893312
8047000: system.mem_ctrl: locMemRecvTimingResp : 2893312
8047000: system.mem_ctrl: far mem read is sent : 2893312
8201652: system.mem_ctrl: farMemRecvTimingResp : 2893312 , ReadResp 
8201652: system.mem_ctrl: farMemRecvTimingResp : continuing to far read resp: 1
8201652: system.mem_ctrl: Responding to Address 2893312 
8201652: system.mem_ctrl: latencyFactor = 1 
8201652: system.mem_ctrl: Done
8201652: system.mem_ctrl: loc mem write is sent : 2893312
8211652: system.mem_ctrl: locMemRecvTimingResp : 2893312
8342000: system.mem_ctrl: recvTimingReq: request ReadSharedReq addr 0x2c2e40 size 64
8342000: system.mem_ctrl: NS: For Address 2895424 | Predicted Compressible = 0| IsHit = 0
8342000: system.mem_ctrl: NS: For Address 2895424 | Adding normal tag for set index = 45241
8342000: system.mem_ctrl: Policy manager accepted packet 2895424
8342000: system.mem_ctrl: loc mem read is sent : 2895424
8397000: system.mem_ctrl: locMemRecvTimingResp : 2895424
8397000: system.mem_ctrl: far mem read is sent : 2895424
8434492: system.mem_ctrl: farMemRecvTimingResp : 2895424 , ReadResp 
8434492: system.mem_ctrl: farMemRecvTimingResp : continuing to far read resp: 1
8434492: system.mem_ctrl: Responding to Address 2895424 
8434492: system.mem_ctrl: latencyFactor = 1 
8434492: system.mem_ctrl: Done
8434492: system.mem_ctrl: loc mem write is sent : 2895424
8444492: system.mem_ctrl: locMemRecvTimingResp : 2895424
8539000: system.mem_ctrl: recvTimingReq: request ReadSharedReq addr 0x2c2e80 size 64
8539000: system.mem_ctrl: NS: For Address 2895488 | Checking normal tag | isHit = 0
8539000: system.mem_ctrl: NS: For Address 2895488 | Predicted Compressible = 1| IsHit = 0
8539000: system.mem_ctrl: NS: For Address 2895488 | Adding tagBai for set index = 22621 and compressed index = 0
8539000: system.mem_ctrl: Policy manager accepted packet 2895488
8539000: system.mem_ctrl: loc mem read is sent : 2895488
8594000: system.mem_ctrl: locMemRecvTimingResp : 2895488
8594000: system.mem_ctrl: far mem read is sent : 2895488
8631492: system.mem_ctrl: farMemRecvTimingResp : 2895488 , ReadResp 
8631492: system.mem_ctrl: farMemRecvTimingResp : continuing to far read resp: 1
8631492: system.mem_ctrl: Responding to Address 2895488 
8631492: system.mem_ctrl: latencyFactor = 1 
8631492: system.mem_ctrl: Done
8631492: system.mem_ctrl: loc mem write is sent : 2895488
8641492: system.mem_ctrl: locMemRecvTimingResp : 2895488
8718000: system.mem_ctrl: recvTimingReq: request ReadExReq addr 0x518ac0 size 64
8718000: system.mem_ctrl: NS: For Address 5343936 | Predicted Compressible = 0| IsHit = 0
8718000: system.mem_ctrl: NS: For Address 5343936 | Adding normal tag for set index = 83499
8718000: system.mem_ctrl: Policy manager accepted packet 5343936
8718000: system.mem_ctrl: loc mem read is sent : 5343936
8773000: system.mem_ctrl: locMemRecvTimingResp : 5343936
8773000: system.mem_ctrl: far mem read is sent : 5343936
8824652: system.mem_ctrl: farMemRecvTimingResp : 5343936 , ReadResp 
8824652: system.mem_ctrl: farMemRecvTimingResp : continuing to far read resp: 1
8824652: system.mem_ctrl: Responding to Address 5343936 
8824652: system.mem_ctrl: latencyFactor = 1 
8824652: system.mem_ctrl: Done
8824652: system.mem_ctrl: loc mem write is sent : 5343936
8834652: system.mem_ctrl: locMemRecvTimingResp : 5343936
8911000: system.mem_ctrl: recvTimingReq: request ReadSharedReq addr 0x2f3540 size 64
8911000: system.mem_ctrl: NS: For Address 3093824 | Predicted Compressible = 0| IsHit = 0
8911000: system.mem_ctrl: NS: For Address 3093824 | Adding normal tag for set index = 48341
8911000: system.mem_ctrl: Policy manager accepted packet 3093824
8911000: system.mem_ctrl: loc mem read is sent : 3093824
8966000: system.mem_ctrl: locMemRecvTimingResp : 3093824
8966000: system.mem_ctrl: far mem read is sent : 3093824
9017652: system.mem_ctrl: farMemRecvTimingResp : 3093824 , ReadResp 
9017652: system.mem_ctrl: farMemRecvTimingResp : continuing to far read resp: 1
9017652: system.mem_ctrl: Responding to Address 3093824 
9017652: system.mem_ctrl: latencyFactor = 1 
9017652: system.mem_ctrl: Done
9017652: system.mem_ctrl: loc mem write is sent : 3093824
9027652: system.mem_ctrl: locMemRecvTimingResp : 3093824
9136000: system.mem_ctrl: recvTimingReq: request ReadSharedReq addr 0x518b40 size 64
9136000: system.mem_ctrl: NS: For Address 5344064 | Predicted Compressible = 0| IsHit = 0
9136000: system.mem_ctrl: NS: For Address 5344064 | Adding normal tag for set index = 83501
9136000: system.mem_ctrl: Policy manager accepted packet 5344064
9136000: system.mem_ctrl: loc mem read is sent : 5344064
9191000: system.mem_ctrl: locMemRecvTimingResp : 5344064
9191000: system.mem_ctrl: far mem read is sent : 5344064
9228492: system.mem_ctrl: farMemRecvTimingResp : 5344064 , ReadResp 
9228492: system.mem_ctrl: farMemRecvTimingResp : continuing to far read resp: 1
9228492: system.mem_ctrl: Responding to Address 5344064 
9228492: system.mem_ctrl: latencyFactor = 1 
9228492: system.mem_ctrl: Done
9228492: system.mem_ctrl: loc mem write is sent : 5344064
9238492: system.mem_ctrl: locMemRecvTimingResp : 5344064
9343000: system.mem_ctrl: recvTimingReq: request ReadSharedReq addr 0x2c2ec0 size 64
9343000: system.mem_ctrl: NS: For Address 2895552 | Predicted Compressible = 0| IsHit = 0
9343000: system.mem_ctrl: NS: For Address 2895552 | Adding normal tag for set index = 45243
9343000: system.mem_ctrl: Policy manager accepted packet 2895552
9343000: system.mem_ctrl: loc mem read is sent : 2895552
9398000: system.mem_ctrl: locMemRecvTimingResp : 2895552
9398000: system.mem_ctrl: far mem read is sent : 2895552
9435492: system.mem_ctrl: farMemRecvTimingResp : 2895552 , ReadResp 
9435492: system.mem_ctrl: farMemRecvTimingResp : continuing to far read resp: 1
9435492: system.mem_ctrl: Responding to Address 2895552 
9435492: system.mem_ctrl: latencyFactor = 1 
9435492: system.mem_ctrl: Done
9435492: system.mem_ctrl: loc mem write is sent : 2895552
9445492: system.mem_ctrl: locMemRecvTimingResp : 2895552
9634000: system.mem_ctrl: recvTimingReq: request ReadSharedReq addr 0x2c2f00 size 64
9634000: system.mem_ctrl: NS: For Address 2895616 | Checking normal tag | isHit = 0
9634000: system.mem_ctrl: NS: For Address 2895616 | Predicted Compressible = 1| IsHit = 0
9634000: system.mem_ctrl: NS: For Address 2895616 | Adding tagBai for set index = 22622 and compressed index = 0
9634000: system.mem_ctrl: Policy manager accepted packet 2895616
9634000: system.mem_ctrl: loc mem read is sent : 2895616
9689000: system.mem_ctrl: locMemRecvTimingResp : 2895616
9689000: system.mem_ctrl: far mem read is sent : 2895616
9726492: system.mem_ctrl: farMemRecvTimingResp : 2895616 , ReadResp 
9726492: system.mem_ctrl: farMemRecvTimingResp : continuing to far read resp: 1
9726492: system.mem_ctrl: Responding to Address 2895616 
9726492: system.mem_ctrl: latencyFactor = 1 
9726492: system.mem_ctrl: Done
9726492: system.mem_ctrl: loc mem write is sent : 2895616
9736492: system.mem_ctrl: locMemRecvTimingResp : 2895616
9855000: system.mem_ctrl: recvTimingReq: request ReadSharedReq addr 0x290980 size 64
9855000: system.mem_ctrl: NS: For Address 2689408 | Checking normal tag | isHit = 0
9855000: system.mem_ctrl: NS: For Address 2689408 | Predicted Compressible = 1| IsHit = 0
9855000: system.mem_ctrl: NS: For Address 2689408 | Adding tagBai for set index = 21011 and compressed index = 0
9855000: system.mem_ctrl: Policy manager accepted packet 2689408
9855000: system.mem_ctrl: loc mem read is sent : 2689408
9910000: system.mem_ctrl: locMemRecvTimingResp : 2689408
9910000: system.mem_ctrl: far mem read is sent : 2689408
9961652: system.mem_ctrl: farMemRecvTimingResp : 2689408 , ReadResp 
9961652: system.mem_ctrl: farMemRecvTimingResp : continuing to far read resp: 1
9961652: system.mem_ctrl: Responding to Address 2689408 
9961652: system.mem_ctrl: latencyFactor = 1 
9961652: system.mem_ctrl: Done
9961652: system.mem_ctrl: loc mem write is sent : 2689408
9971652: system.mem_ctrl: locMemRecvTimingResp : 2689408
10056000: system.mem_ctrl: recvTimingReq: request ReadSharedReq addr 0x2910c0 size 64
10056000: system.mem_ctrl: NS: For Address 2691264 | Predicted Compressible = 0| IsHit = 0
10056000: system.mem_ctrl: NS: For Address 2691264 | Adding normal tag for set index = 42051
10056000: system.mem_ctrl: Policy manager accepted packet 2691264
10056000: system.mem_ctrl: loc mem read is sent : 2691264
10111000: system.mem_ctrl: locMemRecvTimingResp : 2691264
10111000: system.mem_ctrl: far mem read is sent : 2691264
10148492: system.mem_ctrl: farMemRecvTimingResp : 2691264 , ReadResp 
10148492: system.mem_ctrl: farMemRecvTimingResp : continuing to far read resp: 1
10148492: system.mem_ctrl: Responding to Address 2691264 
10148492: system.mem_ctrl: latencyFactor = 1 
10148492: system.mem_ctrl: Done
10148492: system.mem_ctrl: loc mem write is sent : 2691264
10158492: system.mem_ctrl: locMemRecvTimingResp : 2691264
10255000: system.mem_ctrl: recvTimingReq: request ReadSharedReq addr 0x291100 size 64
10255000: system.mem_ctrl: NS: For Address 2691328 | Checking normal tag | isHit = 0
10255000: system.mem_ctrl: NS: For Address 2691328 | Predicted Compressible = 1| IsHit = 0
10255000: system.mem_ctrl: NS: For Address 2691328 | Adding tagBai for set index = 21026 and compressed index = 0
10255000: system.mem_ctrl: Policy manager accepted packet 2691328
10255000: system.mem_ctrl: loc mem read is sent : 2691328
10310000: system.mem_ctrl: locMemRecvTimingResp : 2691328
10310000: system.mem_ctrl: far mem read is sent : 2691328
10347492: system.mem_ctrl: farMemRecvTimingResp : 2691328 , ReadResp 
10347492: system.mem_ctrl: farMemRecvTimingResp : continuing to far read resp: 1
10347492: system.mem_ctrl: Responding to Address 2691328 
10347492: system.mem_ctrl: latencyFactor = 1 
10347492: system.mem_ctrl: Done
10347492: system.mem_ctrl: loc mem write is sent : 2691328
10357492: system.mem_ctrl: locMemRecvTimingResp : 2691328
10444000: system.mem_ctrl: recvTimingReq: request ReadSharedReq addr 0x1c0 size 64
10444000: system.mem_ctrl: NS: For Address 448 | Predicted Compressible = 0| IsHit = 0
10444000: system.mem_ctrl: NS: For Address 448 | Adding normal tag for set index = 7
10444000: system.mem_ctrl: Policy manager accepted packet 448
10444000: system.mem_ctrl: loc mem read is sent : 448
10499000: system.mem_ctrl: locMemRecvTimingResp : 448
10499000: system.mem_ctrl: far mem read is sent : 448
10550652: system.mem_ctrl: farMemRecvTimingResp : 448 , ReadResp 
10550652: system.mem_ctrl: farMemRecvTimingResp : continuing to far read resp: 1
10550652: system.mem_ctrl: Responding to Address 448 
10550652: system.mem_ctrl: latencyFactor = 1 
10550652: system.mem_ctrl: Done
10550652: system.mem_ctrl: loc mem write is sent : 448
10560652: system.mem_ctrl: locMemRecvTimingResp : 448
10655000: system.mem_ctrl: recvTimingReq: request ReadSharedReq addr 0x291140 size 64
10655000: system.mem_ctrl: NS: For Address 2691392 | Predicted Compressible = 0| IsHit = 0
10655000: system.mem_ctrl: NS: For Address 2691392 | Adding normal tag for set index = 42053
10655000: system.mem_ctrl: Policy manager accepted packet 2691392
10655000: system.mem_ctrl: loc mem read is sent : 2691392
10710000: system.mem_ctrl: locMemRecvTimingResp : 2691392
10710000: system.mem_ctrl: far mem read is sent : 2691392
10747492: system.mem_ctrl: farMemRecvTimingResp : 2691392 , ReadResp 
10747492: system.mem_ctrl: farMemRecvTimingResp : continuing to far read resp: 1
10747492: system.mem_ctrl: Responding to Address 2691392 
10747492: system.mem_ctrl: latencyFactor = 1 
10747492: system.mem_ctrl: Done
10747492: system.mem_ctrl: loc mem write is sent : 2691392
10757492: system.mem_ctrl: locMemRecvTimingResp : 2691392
10842000: system.mem_ctrl: recvTimingReq: request ReadSharedReq addr 0x2e38c0 size 64
10842000: system.mem_ctrl: NS: For Address 3029184 | Predicted Compressible = 0| IsHit = 0
10842000: system.mem_ctrl: NS: For Address 3029184 | Adding normal tag for set index = 47331
10842000: system.mem_ctrl: Policy manager accepted packet 3029184
10842000: system.mem_ctrl: loc mem read is sent : 3029184
10897000: system.mem_ctrl: locMemRecvTimingResp : 3029184
10897000: system.mem_ctrl: far mem read is sent : 3029184
10948652: system.mem_ctrl: farMemRecvTimingResp : 3029184 , ReadResp 
10948652: system.mem_ctrl: farMemRecvTimingResp : continuing to far read resp: 1
10948652: system.mem_ctrl: Responding to Address 3029184 
10948652: system.mem_ctrl: latencyFactor = 1 
10948652: system.mem_ctrl: Done
10948652: system.mem_ctrl: loc mem write is sent : 3029184
10958652: system.mem_ctrl: locMemRecvTimingResp : 3029184
11035000: system.mem_ctrl: recvTimingReq: request ReadSharedReq addr 0x517200 size 64
11035000: system.mem_ctrl: NS: For Address 5337600 | Checking normal tag | isHit = 0
11035000: system.mem_ctrl: NS: For Address 5337600 | Predicted Compressible = 1| IsHit = 0
11035000: system.mem_ctrl: NS: For Address 5337600 | Adding tagBai for set index = 41700 and compressed index = 0
11035000: system.mem_ctrl: Policy manager accepted packet 5337600
11035000: system.mem_ctrl: loc mem read is sent : 5337600
11090000: system.mem_ctrl: locMemRecvTimingResp : 5337600
11090000: system.mem_ctrl: far mem read is sent : 5337600
11141652: system.mem_ctrl: farMemRecvTimingResp : 5337600 , ReadResp 
11141652: system.mem_ctrl: farMemRecvTimingResp : continuing to far read resp: 1
11141652: system.mem_ctrl: Responding to Address 5337600 
11141652: system.mem_ctrl: latencyFactor = 1 
11141652: system.mem_ctrl: Done
11141652: system.mem_ctrl: loc mem write is sent : 5337600
11151652: system.mem_ctrl: locMemRecvTimingResp : 5337600
11236000: system.mem_ctrl: recvTimingReq: request ReadSharedReq addr 0x2c3040 size 64
11236000: system.mem_ctrl: NS: For Address 2895936 | Predicted Compressible = 0| IsHit = 0
11236000: system.mem_ctrl: NS: For Address 2895936 | Adding normal tag for set index = 45249
11236000: system.mem_ctrl: Policy manager accepted packet 2895936
11236000: system.mem_ctrl: loc mem read is sent : 2895936
11291000: system.mem_ctrl: locMemRecvTimingResp : 2895936
11291000: system.mem_ctrl: far mem read is sent : 2895936
11328492: system.mem_ctrl: farMemRecvTimingResp : 2895936 , ReadResp 
11328492: system.mem_ctrl: farMemRecvTimingResp : continuing to far read resp: 1
11328492: system.mem_ctrl: Responding to Address 2895936 
11328492: system.mem_ctrl: latencyFactor = 1 
11328492: system.mem_ctrl: Done
11328492: system.mem_ctrl: loc mem write is sent : 2895936
11338492: system.mem_ctrl: locMemRecvTimingResp : 2895936
11441000: system.mem_ctrl: recvTimingReq: request ReadSharedReq addr 0x2c3080 size 64
11441000: system.mem_ctrl: NS: For Address 2896000 | Checking normal tag | isHit = 0
11441000: system.mem_ctrl: NS: For Address 2896000 | Predicted Compressible = 1| IsHit = 0
11441000: system.mem_ctrl: NS: For Address 2896000 | Adding tagBai for set index = 22625 and compressed index = 0
11441000: system.mem_ctrl: Policy manager accepted packet 2896000
11441000: system.mem_ctrl: loc mem read is sent : 2896000
11496000: system.mem_ctrl: locMemRecvTimingResp : 2896000
11496000: system.mem_ctrl: far mem read is sent : 2896000
11533492: system.mem_ctrl: farMemRecvTimingResp : 2896000 , ReadResp 
11533492: system.mem_ctrl: farMemRecvTimingResp : continuing to far read resp: 1
11533492: system.mem_ctrl: Responding to Address 2896000 
11533492: system.mem_ctrl: latencyFactor = 1 
11533492: system.mem_ctrl: Done
11533492: system.mem_ctrl: loc mem write is sent : 2896000
11543492: system.mem_ctrl: locMemRecvTimingResp : 2896000
11642000: system.mem_ctrl: recvTimingReq: request ReadExReq addr 0x517240 size 64
11642000: system.mem_ctrl: NS: For Address 5337664 | Predicted Compressible = 0| IsHit = 0
11642000: system.mem_ctrl: NS: For Address 5337664 | Adding normal tag for set index = 83401
11642000: system.mem_ctrl: Policy manager accepted packet 5337664
11642000: system.mem_ctrl: loc mem read is sent : 5337664
11697000: system.mem_ctrl: locMemRecvTimingResp : 5337664
11697000: system.mem_ctrl: far mem read is sent : 5337664
11734492: system.mem_ctrl: farMemRecvTimingResp : 5337664 , ReadResp 
11734492: system.mem_ctrl: farMemRecvTimingResp : continuing to far read resp: 1
11734492: system.mem_ctrl: Responding to Address 5337664 
11734492: system.mem_ctrl: latencyFactor = 1 
11734492: system.mem_ctrl: Done
11734492: system.mem_ctrl: loc mem write is sent : 5337664
11744492: system.mem_ctrl: locMemRecvTimingResp : 5337664
11823000: system.mem_ctrl: recvTimingReq: request ReadSharedReq addr 0x2c30c0 size 64
11823000: system.mem_ctrl: NS: For Address 2896064 | Predicted Compressible = 0| IsHit = 0
11823000: system.mem_ctrl: NS: For Address 2896064 | Adding normal tag for set index = 45251
11823000: system.mem_ctrl: Policy manager accepted packet 2896064
11823000: system.mem_ctrl: loc mem read is sent : 2896064
11959000: system.mem_ctrl: locMemRecvTimingResp : 2896064
11959000: system.mem_ctrl: far mem read is sent : 2896064
11996492: system.mem_ctrl: farMemRecvTimingResp : 2896064 , ReadResp 
11996492: system.mem_ctrl: farMemRecvTimingResp : continuing to far read resp: 1
11996492: system.mem_ctrl: Responding to Address 2896064 
11996492: system.mem_ctrl: latencyFactor = 1 
11996492: system.mem_ctrl: Done
11996492: system.mem_ctrl: loc mem write is sent : 2896064
12006492: system.mem_ctrl: locMemRecvTimingResp : 2896064
12101000: system.mem_ctrl: recvTimingReq: request ReadSharedReq addr 0x2e3900 size 64
12101000: system.mem_ctrl: NS: For Address 3029248 | Checking normal tag | isHit = 0
12101000: system.mem_ctrl: NS: For Address 3029248 | Predicted Compressible = 1| IsHit = 0
12101000: system.mem_ctrl: NS: For Address 3029248 | Adding tagBai for set index = 23666 and compressed index = 0
12101000: system.mem_ctrl: Policy manager accepted packet 3029248
12101000: system.mem_ctrl: loc mem read is sent : 3029248
12156000: system.mem_ctrl: locMemRecvTimingResp : 3029248
12156000: system.mem_ctrl: far mem read is sent : 3029248
12193492: system.mem_ctrl: farMemRecvTimingResp : 3029248 , ReadResp 
12193492: system.mem_ctrl: farMemRecvTimingResp : continuing to far read resp: 1
12193492: system.mem_ctrl: Responding to Address 3029248 
12193492: system.mem_ctrl: latencyFactor = 1 
12193492: system.mem_ctrl: Done
12193492: system.mem_ctrl: loc mem write is sent : 3029248
12203492: system.mem_ctrl: locMemRecvTimingResp : 3029248
12312000: system.mem_ctrl: recvTimingReq: request ReadExReq addr 0x458040 size 64
12312000: system.mem_ctrl: NS: For Address 4554816 | Predicted Compressible = 0| IsHit = 0
12312000: system.mem_ctrl: NS: For Address 4554816 | Adding normal tag for set index = 71169
12312000: system.mem_ctrl: Policy manager accepted packet 4554816
12312000: system.mem_ctrl: loc mem read is sent : 4554816
12367000: system.mem_ctrl: locMemRecvTimingResp : 4554816
12367000: system.mem_ctrl: far mem read is sent : 4554816
12432812: system.mem_ctrl: farMemRecvTimingResp : 4554816 , ReadResp 
12432812: system.mem_ctrl: farMemRecvTimingResp : continuing to far read resp: 1
12432812: system.mem_ctrl: Responding to Address 4554816 
12432812: system.mem_ctrl: latencyFactor = 1 
12432812: system.mem_ctrl: Done
12432812: system.mem_ctrl: loc mem write is sent : 4554816
12442812: system.mem_ctrl: locMemRecvTimingResp : 4554816
12545000: system.mem_ctrl: recvTimingReq: request ReadSharedReq addr 0x200 size 64
12545000: system.mem_ctrl: NS: For Address 512 | Checking normal tag | isHit = 0
12545000: system.mem_ctrl: NS: For Address 512 | Predicted Compressible = 1| IsHit = 0
12545000: system.mem_ctrl: NS: For Address 512 | Adding tagBai for set index = 4 and compressed index = 0
12545000: system.mem_ctrl: Policy manager accepted packet 512
12545000: system.mem_ctrl: loc mem read is sent : 512
12600000: system.mem_ctrl: locMemRecvTimingResp : 512
12600000: system.mem_ctrl: far mem read is sent : 512
12637492: system.mem_ctrl: farMemRecvTimingResp : 512 , ReadResp 
12637492: system.mem_ctrl: farMemRecvTimingResp : continuing to far read resp: 1
12637492: system.mem_ctrl: Responding to Address 512 
12637492: system.mem_ctrl: latencyFactor = 1 
12637492: system.mem_ctrl: Done
12637492: system.mem_ctrl: loc mem write is sent : 512
12647492: system.mem_ctrl: locMemRecvTimingResp : 512
12726000: system.mem_ctrl: recvTimingReq: request ReadSharedReq addr 0x2e2d80 size 64
12726000: system.mem_ctrl: NS: For Address 3026304 | Checking normal tag | isHit = 0
12726000: system.mem_ctrl: NS: For Address 3026304 | Predicted Compressible = 1| IsHit = 0
12726000: system.mem_ctrl: NS: For Address 3026304 | Adding tagBai for set index = 23643 and compressed index = 0
12726000: system.mem_ctrl: Policy manager accepted packet 3026304
12726000: system.mem_ctrl: loc mem read is sent : 3026304
12781000: system.mem_ctrl: locMemRecvTimingResp : 3026304
12781000: system.mem_ctrl: far mem read is sent : 3026304
12818492: system.mem_ctrl: farMemRecvTimingResp : 3026304 , ReadResp 
12818492: system.mem_ctrl: farMemRecvTimingResp : continuing to far read resp: 1
12818492: system.mem_ctrl: Responding to Address 3026304 
12818492: system.mem_ctrl: latencyFactor = 1 
12818492: system.mem_ctrl: Done
12818492: system.mem_ctrl: loc mem write is sent : 3026304
12828492: system.mem_ctrl: locMemRecvTimingResp : 3026304
12965000: system.mem_ctrl: recvTimingReq: request ReadSharedReq addr 0x2a6240 size 64
12965000: system.mem_ctrl: NS: For Address 2777664 | Predicted Compressible = 0| IsHit = 0
12965000: system.mem_ctrl: NS: For Address 2777664 | Adding normal tag for set index = 43401
12965000: system.mem_ctrl: Policy manager accepted packet 2777664
12965000: system.mem_ctrl: loc mem read is sent : 2777664
13020000: system.mem_ctrl: locMemRecvTimingResp : 2777664
13020000: system.mem_ctrl: far mem read is sent : 2777664
13071652: system.mem_ctrl: farMemRecvTimingResp : 2777664 , ReadResp 
13071652: system.mem_ctrl: farMemRecvTimingResp : continuing to far read resp: 1
13071652: system.mem_ctrl: Responding to Address 2777664 
13071652: system.mem_ctrl: latencyFactor = 1 
13071652: system.mem_ctrl: Done
13071652: system.mem_ctrl: loc mem write is sent : 2777664
13081652: system.mem_ctrl: locMemRecvTimingResp : 2777664
13228000: system.mem_ctrl: recvTimingReq: request ReadSharedReq addr 0x31c240 size 64
13228000: system.mem_ctrl: NS: For Address 3260992 | Predicted Compressible = 0| IsHit = 0
13228000: system.mem_ctrl: NS: For Address 3260992 | Adding normal tag for set index = 50953
13228000: system.mem_ctrl: Policy manager accepted packet 3260992
13228000: system.mem_ctrl: loc mem read is sent : 3260992
13283000: system.mem_ctrl: locMemRecvTimingResp : 3260992
13283000: system.mem_ctrl: far mem read is sent : 3260992
13334652: system.mem_ctrl: farMemRecvTimingResp : 3260992 , ReadResp 
13334652: system.mem_ctrl: farMemRecvTimingResp : continuing to far read resp: 1
13334652: system.mem_ctrl: Responding to Address 3260992 
13334652: system.mem_ctrl: latencyFactor = 1 
13334652: system.mem_ctrl: Done
13334652: system.mem_ctrl: loc mem write is sent : 3260992
13344652: system.mem_ctrl: locMemRecvTimingResp : 3260992
13445000: system.mem_ctrl: recvTimingReq: request ReadSharedReq addr 0x31c280 size 64
13445000: system.mem_ctrl: NS: For Address 3261056 | Checking normal tag | isHit = 0
13445000: system.mem_ctrl: NS: For Address 3261056 | Predicted Compressible = 1| IsHit = 0
13445000: system.mem_ctrl: NS: For Address 3261056 | Adding tagBai for set index = 25477 and compressed index = 0
13445000: system.mem_ctrl: Policy manager accepted packet 3261056
13445000: system.mem_ctrl: loc mem read is sent : 3261056
13500000: system.mem_ctrl: locMemRecvTimingResp : 3261056
13500000: system.mem_ctrl: far mem read is sent : 3261056
13537492: system.mem_ctrl: farMemRecvTimingResp : 3261056 , ReadResp 
13537492: system.mem_ctrl: farMemRecvTimingResp : continuing to far read resp: 1
13537492: system.mem_ctrl: Responding to Address 3261056 
13537492: system.mem_ctrl: latencyFactor = 1 
13537492: system.mem_ctrl: Done
13537492: system.mem_ctrl: loc mem write is sent : 3261056
13547492: system.mem_ctrl: locMemRecvTimingResp : 3261056
13658000: system.mem_ctrl: recvTimingReq: request ReadSharedReq addr 0x240 size 64
13658000: system.mem_ctrl: NS: For Address 576 | Predicted Compressible = 0| IsHit = 0
13658000: system.mem_ctrl: NS: For Address 576 | Adding normal tag for set index = 9
13658000: system.mem_ctrl: Policy manager accepted packet 576
13658000: system.mem_ctrl: loc mem read is sent : 576
13713000: system.mem_ctrl: locMemRecvTimingResp : 576
13713000: system.mem_ctrl: far mem read is sent : 576
13750492: system.mem_ctrl: farMemRecvTimingResp : 576 , ReadResp 
13750492: system.mem_ctrl: farMemRecvTimingResp : continuing to far read resp: 1
13750492: system.mem_ctrl: Responding to Address 576 
13750492: system.mem_ctrl: latencyFactor = 1 
13750492: system.mem_ctrl: Done
13750492: system.mem_ctrl: loc mem write is sent : 576
13760492: system.mem_ctrl: locMemRecvTimingResp : 576
13849000: system.mem_ctrl: recvTimingReq: request ReadSharedReq addr 0x2a63c0 size 64
13849000: system.mem_ctrl: NS: For Address 2778048 | Predicted Compressible = 0| IsHit = 0
13849000: system.mem_ctrl: NS: For Address 2778048 | Adding normal tag for set index = 43407
13849000: system.mem_ctrl: Policy manager accepted packet 2778048
13849000: system.mem_ctrl: loc mem read is sent : 2778048
13904000: system.mem_ctrl: locMemRecvTimingResp : 2778048
13904000: system.mem_ctrl: far mem read is sent : 2778048
13941492: system.mem_ctrl: farMemRecvTimingResp : 2778048 , ReadResp 
13941492: system.mem_ctrl: farMemRecvTimingResp : continuing to far read resp: 1
13941492: system.mem_ctrl: Responding to Address 2778048 
13941492: system.mem_ctrl: latencyFactor = 1 
13941492: system.mem_ctrl: Done
13941492: system.mem_ctrl: loc mem write is sent : 2778048
13951492: system.mem_ctrl: locMemRecvTimingResp : 2778048
14088000: system.mem_ctrl: recvTimingReq: request ReadSharedReq addr 0x2a2100 size 64
14088000: system.mem_ctrl: NS: For Address 2760960 | Checking normal tag | isHit = 0
14088000: system.mem_ctrl: NS: For Address 2760960 | Predicted Compressible = 1| IsHit = 0
14088000: system.mem_ctrl: NS: For Address 2760960 | Adding tagBai for set index = 21570 and compressed index = 0
14088000: system.mem_ctrl: Policy manager accepted packet 2760960
14088000: system.mem_ctrl: loc mem read is sent : 2760960
14143000: system.mem_ctrl: locMemRecvTimingResp : 2760960
14143000: system.mem_ctrl: far mem read is sent : 2760960
14208812: system.mem_ctrl: farMemRecvTimingResp : 2760960 , ReadResp 
14208812: system.mem_ctrl: farMemRecvTimingResp : continuing to far read resp: 1
14208812: system.mem_ctrl: Responding to Address 2760960 
14208812: system.mem_ctrl: latencyFactor = 1 
14208812: system.mem_ctrl: Done
14208812: system.mem_ctrl: loc mem write is sent : 2760960
14218812: system.mem_ctrl: locMemRecvTimingResp : 2760960
14317000: system.mem_ctrl: recvTimingReq: request ReadSharedReq addr 0x2a2140 size 64
14317000: system.mem_ctrl: NS: For Address 2761024 | Predicted Compressible = 0| IsHit = 0
14317000: system.mem_ctrl: NS: For Address 2761024 | Adding normal tag for set index = 43141
14317000: system.mem_ctrl: Policy manager accepted packet 2761024
14317000: system.mem_ctrl: loc mem read is sent : 2761024
14372000: system.mem_ctrl: locMemRecvTimingResp : 2761024
14372000: system.mem_ctrl: far mem read is sent : 2761024
14409492: system.mem_ctrl: farMemRecvTimingResp : 2761024 , ReadResp 
14409492: system.mem_ctrl: farMemRecvTimingResp : continuing to far read resp: 1
14409492: system.mem_ctrl: Responding to Address 2761024 
14409492: system.mem_ctrl: latencyFactor = 1 
14409492: system.mem_ctrl: Done
14409492: system.mem_ctrl: loc mem write is sent : 2761024
14419492: system.mem_ctrl: locMemRecvTimingResp : 2761024
14540000: system.mem_ctrl: recvTimingReq: request ReadSharedReq addr 0x2baf80 size 64
14540000: system.mem_ctrl: NS: For Address 2862976 | Checking normal tag | isHit = 0
14540000: system.mem_ctrl: NS: For Address 2862976 | Predicted Compressible = 1| IsHit = 0
14540000: system.mem_ctrl: NS: For Address 2862976 | Adding tagBai for set index = 22367 and compressed index = 0
14540000: system.mem_ctrl: Policy manager accepted packet 2862976
14540000: system.mem_ctrl: loc mem read is sent : 2862976
14595000: system.mem_ctrl: locMemRecvTimingResp : 2862976
14595000: system.mem_ctrl: far mem read is sent : 2862976
14646652: system.mem_ctrl: farMemRecvTimingResp : 2862976 , ReadResp 
14646652: system.mem_ctrl: farMemRecvTimingResp : continuing to far read resp: 1
14646652: system.mem_ctrl: Responding to Address 2862976 
14646652: system.mem_ctrl: latencyFactor = 1 
14646652: system.mem_ctrl: Done
14646652: system.mem_ctrl: loc mem write is sent : 2862976
14656652: system.mem_ctrl: locMemRecvTimingResp : 2862976
14783000: system.mem_ctrl: recvTimingReq: request ReadSharedReq addr 0x280 size 64
14783000: system.mem_ctrl: NS: For Address 640 | Checking normal tag | isHit = 0
14783000: system.mem_ctrl: NS: For Address 640 | Predicted Compressible = 1| IsHit = 0
14783000: system.mem_ctrl: NS: For Address 640 | Adding tagBai for set index = 5 and compressed index = 0
14783000: system.mem_ctrl: Policy manager accepted packet 640
14783000: system.mem_ctrl: loc mem read is sent : 640
14838000: system.mem_ctrl: locMemRecvTimingResp : 640
14838000: system.mem_ctrl: far mem read is sent : 640
14875492: system.mem_ctrl: farMemRecvTimingResp : 640 , ReadResp 
14875492: system.mem_ctrl: farMemRecvTimingResp : continuing to far read resp: 1
14875492: system.mem_ctrl: Responding to Address 640 
14875492: system.mem_ctrl: latencyFactor = 1 
14875492: system.mem_ctrl: Done
14875492: system.mem_ctrl: loc mem write is sent : 640
14885492: system.mem_ctrl: locMemRecvTimingResp : 640
14978000: system.mem_ctrl: recvTimingReq: request ReadSharedReq addr 0x2a4480 size 64
14978000: system.mem_ctrl: NS: For Address 2770048 | Checking normal tag | isHit = 0
14978000: system.mem_ctrl: NS: For Address 2770048 | Predicted Compressible = 1| IsHit = 0
14978000: system.mem_ctrl: NS: For Address 2770048 | Adding tagBai for set index = 21641 and compressed index = 0
14978000: system.mem_ctrl: Policy manager accepted packet 2770048
14978000: system.mem_ctrl: loc mem read is sent : 2770048
15033000: system.mem_ctrl: locMemRecvTimingResp : 2770048
15033000: system.mem_ctrl: far mem read is sent : 2770048
15084652: system.mem_ctrl: farMemRecvTimingResp : 2770048 , ReadResp 
15084652: system.mem_ctrl: farMemRecvTimingResp : continuing to far read resp: 1
15084652: system.mem_ctrl: Responding to Address 2770048 
15084652: system.mem_ctrl: latencyFactor = 1 
15084652: system.mem_ctrl: Done
15084652: system.mem_ctrl: loc mem write is sent : 2770048
15094652: system.mem_ctrl: locMemRecvTimingResp : 2770048
15179000: system.mem_ctrl: recvTimingReq: request ReadSharedReq addr 0x2a44c0 size 64
15179000: system.mem_ctrl: NS: For Address 2770112 | Predicted Compressible = 0| IsHit = 0
15179000: system.mem_ctrl: NS: For Address 2770112 | Adding normal tag for set index = 43283
15179000: system.mem_ctrl: Policy manager accepted packet 2770112
15179000: system.mem_ctrl: loc mem read is sent : 2770112
15234000: system.mem_ctrl: locMemRecvTimingResp : 2770112
15234000: system.mem_ctrl: far mem read is sent : 2770112
15271492: system.mem_ctrl: farMemRecvTimingResp : 2770112 , ReadResp 
15271492: system.mem_ctrl: farMemRecvTimingResp : continuing to far read resp: 1
15271492: system.mem_ctrl: Responding to Address 2770112 
15271492: system.mem_ctrl: latencyFactor = 1 
15271492: system.mem_ctrl: Done
15271492: system.mem_ctrl: loc mem write is sent : 2770112
15281492: system.mem_ctrl: locMemRecvTimingResp : 2770112
15418000: system.mem_ctrl: recvTimingReq: request ReadSharedReq addr 0x2a1f00 size 64
15418000: system.mem_ctrl: NS: For Address 2760448 | Checking normal tag | isHit = 0
15418000: system.mem_ctrl: NS: For Address 2760448 | Predicted Compressible = 1| IsHit = 0
15418000: system.mem_ctrl: NS: For Address 2760448 | Adding tagBai for set index = 21566 and compressed index = 0
15418000: system.mem_ctrl: Policy manager accepted packet 2760448
15418000: system.mem_ctrl: loc mem read is sent : 2760448
15473000: system.mem_ctrl: locMemRecvTimingResp : 2760448
15473000: system.mem_ctrl: far mem read is sent : 2760448
15524652: system.mem_ctrl: farMemRecvTimingResp : 2760448 , ReadResp 
15524652: system.mem_ctrl: farMemRecvTimingResp : continuing to far read resp: 1
15524652: system.mem_ctrl: Responding to Address 2760448 
15524652: system.mem_ctrl: latencyFactor = 1 
15524652: system.mem_ctrl: Done
15524652: system.mem_ctrl: loc mem write is sent : 2760448
15534652: system.mem_ctrl: locMemRecvTimingResp : 2760448
15635000: system.mem_ctrl: recvTimingReq: request ReadSharedReq addr 0x2a1f40 size 64
15635000: system.mem_ctrl: NS: For Address 2760512 | Predicted Compressible = 0| IsHit = 0
15635000: system.mem_ctrl: NS: For Address 2760512 | Adding normal tag for set index = 43133
15635000: system.mem_ctrl: Policy manager accepted packet 2760512
15635000: system.mem_ctrl: loc mem read is sent : 2760512
15819000: system.mem_ctrl: locMemRecvTimingResp : 2760512
15819000: system.mem_ctrl: far mem read is sent : 2760512
15987492: system.mem_ctrl: farMemRecvTimingResp : 2760512 , ReadResp 
15987492: system.mem_ctrl: farMemRecvTimingResp : continuing to far read resp: 1
15987492: system.mem_ctrl: Responding to Address 2760512 
15987492: system.mem_ctrl: latencyFactor = 1 
15987492: system.mem_ctrl: Done
15987492: system.mem_ctrl: loc mem write is sent : 2760512
15997492: system.mem_ctrl: locMemRecvTimingResp : 2760512
16086000: system.mem_ctrl: recvTimingReq: request ReadExReq addr 0x458000 size 64
16086000: system.mem_ctrl: NS: For Address 4554752 | Checking normal tag | isHit = 0
16086000: system.mem_ctrl: NS: For Address 4554752 | Predicted Compressible = 1| IsHit = 0
16086000: system.mem_ctrl: NS: For Address 4554752 | Adding tagBai for set index = 35584 and compressed index = 0
16086000: system.mem_ctrl: Policy manager accepted packet 4554752
16086000: system.mem_ctrl: loc mem read is sent : 4554752
16141000: system.mem_ctrl: locMemRecvTimingResp : 4554752
16141000: system.mem_ctrl: far mem read is sent : 4554752
16192652: system.mem_ctrl: farMemRecvTimingResp : 4554752 , ReadResp 
16192652: system.mem_ctrl: farMemRecvTimingResp : continuing to far read resp: 1
16192652: system.mem_ctrl: Responding to Address 4554752 
16192652: system.mem_ctrl: latencyFactor = 1 
16192652: system.mem_ctrl: Done
16192652: system.mem_ctrl: loc mem write is sent : 4554752
16202652: system.mem_ctrl: locMemRecvTimingResp : 4554752
16305000: system.mem_ctrl: recvTimingReq: request ReadSharedReq addr 0x2c0 size 64
16305000: system.mem_ctrl: NS: For Address 704 | Predicted Compressible = 0| IsHit = 0
16305000: system.mem_ctrl: NS: For Address 704 | Adding normal tag for set index = 11
16305000: system.mem_ctrl: Policy manager accepted packet 704
16305000: system.mem_ctrl: loc mem read is sent : 704
16360000: system.mem_ctrl: locMemRecvTimingResp : 704
16360000: system.mem_ctrl: far mem read is sent : 704
16411652: system.mem_ctrl: farMemRecvTimingResp : 704 , ReadResp 
16411652: system.mem_ctrl: farMemRecvTimingResp : continuing to far read resp: 1
16411652: system.mem_ctrl: Responding to Address 704 
16411652: system.mem_ctrl: latencyFactor = 1 
16411652: system.mem_ctrl: Done
16411652: system.mem_ctrl: loc mem write is sent : 704
16421652: system.mem_ctrl: locMemRecvTimingResp : 704
16500000: system.mem_ctrl: recvTimingReq: request ReadSharedReq addr 0x2a6a40 size 64
16500000: system.mem_ctrl: NS: For Address 2779712 | Predicted Compressible = 0| IsHit = 0
16500000: system.mem_ctrl: NS: For Address 2779712 | Adding normal tag for set index = 43433
16500000: system.mem_ctrl: Policy manager accepted packet 2779712
16500000: system.mem_ctrl: loc mem read is sent : 2779712
16555000: system.mem_ctrl: locMemRecvTimingResp : 2779712
16555000: system.mem_ctrl: far mem read is sent : 2779712
16606652: system.mem_ctrl: farMemRecvTimingResp : 2779712 , ReadResp 
16606652: system.mem_ctrl: farMemRecvTimingResp : continuing to far read resp: 1
16606652: system.mem_ctrl: Responding to Address 2779712 
16606652: system.mem_ctrl: latencyFactor = 1 
16606652: system.mem_ctrl: Done
16606652: system.mem_ctrl: loc mem write is sent : 2779712
16616652: system.mem_ctrl: locMemRecvTimingResp : 2779712
16715000: system.mem_ctrl: recvTimingReq: request ReadSharedReq addr 0x2a6a80 size 64
16715000: system.mem_ctrl: NS: For Address 2779776 | Checking normal tag | isHit = 0
16715000: system.mem_ctrl: NS: For Address 2779776 | Predicted Compressible = 1| IsHit = 0
16715000: system.mem_ctrl: NS: For Address 2779776 | Adding tagBai for set index = 21717 and compressed index = 0
16715000: system.mem_ctrl: Policy manager accepted packet 2779776
16715000: system.mem_ctrl: loc mem read is sent : 2779776
16770000: system.mem_ctrl: locMemRecvTimingResp : 2779776
16770000: system.mem_ctrl: far mem read is sent : 2779776
16807492: system.mem_ctrl: farMemRecvTimingResp : 2779776 , ReadResp 
16807492: system.mem_ctrl: farMemRecvTimingResp : continuing to far read resp: 1
16807492: system.mem_ctrl: Responding to Address 2779776 
16807492: system.mem_ctrl: latencyFactor = 1 
16807492: system.mem_ctrl: Done
16807492: system.mem_ctrl: loc mem write is sent : 2779776
16817492: system.mem_ctrl: locMemRecvTimingResp : 2779776
16934000: system.mem_ctrl: recvTimingReq: request ReadSharedReq addr 0x2e37c0 size 64
16934000: system.mem_ctrl: NS: For Address 3028928 | Predicted Compressible = 0| IsHit = 0
16934000: system.mem_ctrl: NS: For Address 3028928 | Adding normal tag for set index = 47327
16934000: system.mem_ctrl: Policy manager accepted packet 3028928
16934000: system.mem_ctrl: loc mem read is sent : 3028928
16989000: system.mem_ctrl: locMemRecvTimingResp : 3028928
16989000: system.mem_ctrl: far mem read is sent : 3028928
17040652: system.mem_ctrl: farMemRecvTimingResp : 3028928 , ReadResp 
17040652: system.mem_ctrl: farMemRecvTimingResp : continuing to far read resp: 1
17040652: system.mem_ctrl: Responding to Address 3028928 
17040652: system.mem_ctrl: latencyFactor = 1 
17040652: system.mem_ctrl: Done
17040652: system.mem_ctrl: loc mem write is sent : 3028928
17050652: system.mem_ctrl: locMemRecvTimingResp : 3028928
17151000: system.mem_ctrl: recvTimingReq: request ReadSharedReq addr 0x2e3800 size 64
17151000: system.mem_ctrl: NS: For Address 3028992 | Checking normal tag | isHit = 0
17151000: system.mem_ctrl: NS: For Address 3028992 | Predicted Compressible = 1| IsHit = 0
17151000: system.mem_ctrl: NS: For Address 3028992 | Adding tagBai for set index = 23664 and compressed index = 0
17151000: system.mem_ctrl: Policy manager accepted packet 3028992
17151000: system.mem_ctrl: loc mem read is sent : 3028992
17206000: system.mem_ctrl: locMemRecvTimingResp : 3028992
17206000: system.mem_ctrl: far mem read is sent : 3028992
17243492: system.mem_ctrl: farMemRecvTimingResp : 3028992 , ReadResp 
17243492: system.mem_ctrl: farMemRecvTimingResp : continuing to far read resp: 1
17243492: system.mem_ctrl: Responding to Address 3028992 
17243492: system.mem_ctrl: latencyFactor = 1 
17243492: system.mem_ctrl: Done
17243492: system.mem_ctrl: loc mem write is sent : 3028992
17253492: system.mem_ctrl: locMemRecvTimingResp : 3028992
17384000: system.mem_ctrl: recvTimingReq: request ReadSharedReq addr 0x2a6ac0 size 64
17384000: system.mem_ctrl: NS: For Address 2779840 | Predicted Compressible = 0| IsHit = 0
17384000: system.mem_ctrl: NS: For Address 2779840 | Adding normal tag for set index = 43435
17384000: system.mem_ctrl: Policy manager accepted packet 2779840
17384000: system.mem_ctrl: loc mem read is sent : 2779840
17439000: system.mem_ctrl: locMemRecvTimingResp : 2779840
17439000: system.mem_ctrl: far mem read is sent : 2779840
17476492: system.mem_ctrl: farMemRecvTimingResp : 2779840 , ReadResp 
17476492: system.mem_ctrl: farMemRecvTimingResp : continuing to far read resp: 1
17476492: system.mem_ctrl: Responding to Address 2779840 
17476492: system.mem_ctrl: latencyFactor = 1 
17476492: system.mem_ctrl: Done
17476492: system.mem_ctrl: loc mem write is sent : 2779840
17486492: system.mem_ctrl: locMemRecvTimingResp : 2779840
17599000: system.mem_ctrl: recvTimingReq: request ReadSharedReq addr 0x300 size 64
17599000: system.mem_ctrl: NS: For Address 768 | Checking normal tag | isHit = 0
17599000: system.mem_ctrl: NS: For Address 768 | Predicted Compressible = 1| IsHit = 0
17599000: system.mem_ctrl: NS: For Address 768 | Adding tagBai for set index = 6 and compressed index = 0
17599000: system.mem_ctrl: Policy manager accepted packet 768
17599000: system.mem_ctrl: loc mem read is sent : 768
17654000: system.mem_ctrl: locMemRecvTimingResp : 768
17654000: system.mem_ctrl: far mem read is sent : 768
17691492: system.mem_ctrl: farMemRecvTimingResp : 768 , ReadResp 
17691492: system.mem_ctrl: farMemRecvTimingResp : continuing to far read resp: 1
17691492: system.mem_ctrl: Responding to Address 768 
17691492: system.mem_ctrl: latencyFactor = 1 
17691492: system.mem_ctrl: Done
17691492: system.mem_ctrl: loc mem write is sent : 768
17701492: system.mem_ctrl: locMemRecvTimingResp : 768
17790000: system.mem_ctrl: recvTimingReq: request ReadSharedReq addr 0x2a2280 size 64
17790000: system.mem_ctrl: NS: For Address 2761344 | Checking normal tag | isHit = 0
17790000: system.mem_ctrl: NS: For Address 2761344 | Predicted Compressible = 1| IsHit = 0
17790000: system.mem_ctrl: NS: For Address 2761344 | Adding tagBai for set index = 21573 and compressed index = 0
17790000: system.mem_ctrl: Policy manager accepted packet 2761344
17790000: system.mem_ctrl: loc mem read is sent : 2761344
17845000: system.mem_ctrl: locMemRecvTimingResp : 2761344
17845000: system.mem_ctrl: far mem read is sent : 2761344
17910812: system.mem_ctrl: farMemRecvTimingResp : 2761344 , ReadResp 
17910812: system.mem_ctrl: farMemRecvTimingResp : continuing to far read resp: 1
17910812: system.mem_ctrl: Responding to Address 2761344 
17910812: system.mem_ctrl: latencyFactor = 1 
17910812: system.mem_ctrl: Done
17910812: system.mem_ctrl: loc mem write is sent : 2761344
17920812: system.mem_ctrl: locMemRecvTimingResp : 2761344
18071000: system.mem_ctrl: recvTimingReq: request ReadSharedReq addr 0x2a45c0 size 64
18071000: system.mem_ctrl: NS: For Address 2770368 | Predicted Compressible = 0| IsHit = 0
18071000: system.mem_ctrl: NS: For Address 2770368 | Adding normal tag for set index = 43287
18071000: system.mem_ctrl: Policy manager accepted packet 2770368
18071000: system.mem_ctrl: loc mem read is sent : 2770368
18126000: system.mem_ctrl: locMemRecvTimingResp : 2770368
18126000: system.mem_ctrl: far mem read is sent : 2770368
18177652: system.mem_ctrl: farMemRecvTimingResp : 2770368 , ReadResp 
18177652: system.mem_ctrl: farMemRecvTimingResp : continuing to far read resp: 1
18177652: system.mem_ctrl: Responding to Address 2770368 
18177652: system.mem_ctrl: latencyFactor = 1 
18177652: system.mem_ctrl: Done
18177652: system.mem_ctrl: loc mem write is sent : 2770368
18187652: system.mem_ctrl: locMemRecvTimingResp : 2770368
18324000: system.mem_ctrl: recvTimingReq: request ReadSharedReq addr 0x2a6480 size 64
18324000: system.mem_ctrl: NS: For Address 2778240 | Checking normal tag | isHit = 0
18324000: system.mem_ctrl: NS: For Address 2778240 | Predicted Compressible = 1| IsHit = 0
18324000: system.mem_ctrl: NS: For Address 2778240 | Adding tagBai for set index = 21705 and compressed index = 0
18324000: system.mem_ctrl: Policy manager accepted packet 2778240
18324000: system.mem_ctrl: loc mem read is sent : 2778240
18379000: system.mem_ctrl: locMemRecvTimingResp : 2778240
18379000: system.mem_ctrl: far mem read is sent : 2778240
18416492: system.mem_ctrl: farMemRecvTimingResp : 2778240 , ReadResp 
18416492: system.mem_ctrl: farMemRecvTimingResp : continuing to far read resp: 1
[...]
4789524492: system.mem_ctrl: Done
4789524492: system.mem_ctrl: loc mem write is sent : 4626496
4789534492: system.mem_ctrl: locMemRecvTimingResp : 4626496
4789615000: system.mem_ctrl: recvTimingReq: request ReadExReq addr 0x48d880 size 64
4789615000: system.mem_ctrl: NS: For Address 4774016 | Checking normal tag | isHit = 0
4789615000: system.mem_ctrl: NS: For Address 4774016 | Predicted Compressible = 1| IsHit = 0
4789615000: system.mem_ctrl: NS: For Address 4774016 | Adding tagBai for set index = 37297 and compressed index = 0
4789615000: system.mem_ctrl: Policy manager accepted packet 4774016
4789615000: system.mem_ctrl: loc mem read is sent : 4774016
4789670000: system.mem_ctrl: locMemRecvTimingResp : 4774016
4789670000: system.mem_ctrl: far mem read is sent : 4774016
4789707492: system.mem_ctrl: farMemRecvTimingResp : 4774016 , ReadResp 
4789707492: system.mem_ctrl: farMemRecvTimingResp : continuing to far read resp: 1
4789707492: system.mem_ctrl: Responding to Address 4774016 
4789707492: system.mem_ctrl: latencyFactor = 1 
4789707492: system.mem_ctrl: Done
4789707492: system.mem_ctrl: loc mem write is sent : 4774016
4789717492: system.mem_ctrl: locMemRecvTimingResp : 4774016
4789800000: system.mem_ctrl: recvTimingReq: request ReadExReq addr 0x4b18c0 size 64
4789800000: system.mem_ctrl: NS: For Address 4921536 | Predicted Compressible = 0| IsHit = 0
4789800000: system.mem_ctrl: NS: For Address 4921536 | Adding normal tag for set index = 76899
4789800000: system.mem_ctrl: Policy manager accepted packet 4921536
4789800000: system.mem_ctrl: loc mem read is sent : 4921536
4789855000: system.mem_ctrl: locMemRecvTimingResp : 4921536
4789855000: system.mem_ctrl: far mem read is sent : 4921536
4789892492: system.mem_ctrl: farMemRecvTimingResp : 4921536 , ReadResp 
4789892492: system.mem_ctrl: farMemRecvTimingResp : continuing to far read resp: 1
4789892492: system.mem_ctrl: Responding to Address 4921536 
4789892492: system.mem_ctrl: latencyFactor = 1 
4789892492: system.mem_ctrl: Done
4789892492: system.mem_ctrl: loc mem write is sent : 4921536
4789902492: system.mem_ctrl: locMemRecvTimingResp : 4921536
4790075000: system.mem_ctrl: recvTimingReq: request ReadExReq addr 0x469880 size 64
4790075000: system.mem_ctrl: NS: For Address 4626560 | Checking normal tag | isHit = 0
4790075000: system.mem_ctrl: NS: For Address 4626560 | Predicted Compressible = 1| IsHit = 0
4790075000: system.mem_ctrl: NS: For Address 4626560 | Adding tagBai for set index = 36145 and compressed index = 0
4790075000: system.mem_ctrl: Policy manager accepted packet 4626560
4790075000: system.mem_ctrl: loc mem read is sent : 4626560
4790130000: system.mem_ctrl: locMemRecvTimingResp : 4626560
4790130000: system.mem_ctrl: far mem read is sent : 4626560
4790167492: system.mem_ctrl: farMemRecvTimingResp : 4626560 , ReadResp 
4790167492: system.mem_ctrl: farMemRecvTimingResp : continuing to far read resp: 1
4790167492: system.mem_ctrl: Responding to Address 4626560 
4790167492: system.mem_ctrl: latencyFactor = 1 
4790167492: system.mem_ctrl: Done
4790167492: system.mem_ctrl: loc mem write is sent : 4626560
4790177492: system.mem_ctrl: locMemRecvTimingResp : 4626560
4790258000: system.mem_ctrl: recvTimingReq: request ReadExReq addr 0x48d8c0 size 64
4790258000: system.mem_ctrl: NS: For Address 4774080 | Predicted Compressible = 0| IsHit = 0
4790258000: system.mem_ctrl: NS: For Address 4774080 | Adding normal tag for set index = 74595
4790258000: system.mem_ctrl: Policy manager accepted packet 4774080
4790258000: system.mem_ctrl: loc mem read is sent : 4774080
4790313000: system.mem_ctrl: locMemRecvTimingResp : 4774080
4790313000: system.mem_ctrl: far mem read is sent : 4774080
4790350492: system.mem_ctrl: farMemRecvTimingResp : 4774080 , ReadResp 
4790350492: system.mem_ctrl: farMemRecvTimingResp : continuing to far read resp: 1
4790350492: system.mem_ctrl: Responding to Address 4774080 
4790350492: system.mem_ctrl: latencyFactor = 1 
4790350492: system.mem_ctrl: Done
4790350492: system.mem_ctrl: loc mem write is sent : 4774080
4790360492: system.mem_ctrl: locMemRecvTimingResp : 4774080
4790443000: system.mem_ctrl: recvTimingReq: request ReadExReq addr 0x4b1900 size 64
4790443000: system.mem_ctrl: NS: For Address 4921600 | Checking normal tag | isHit = 0
4790443000: system.mem_ctrl: NS: For Address 4921600 | Predicted Compressible = 1| IsHit = 0
4790443000: system.mem_ctrl: NS: For Address 4921600 | Adding tagBai for set index = 38450 and compressed index = 0
4790443000: system.mem_ctrl: Policy manager accepted packet 4921600
4790443000: system.mem_ctrl: loc mem read is sent : 4921600
4790498000: system.mem_ctrl: locMemRecvTimingResp : 4921600
4790498000: system.mem_ctrl: far mem read is sent : 4921600
4790535492: system.mem_ctrl: farMemRecvTimingResp : 4921600 , ReadResp 
4790535492: system.mem_ctrl: farMemRecvTimingResp : continuing to far read resp: 1
4790535492: system.mem_ctrl: Responding to Address 4921600 
4790535492: system.mem_ctrl: latencyFactor = 1 
4790535492: system.mem_ctrl: Done
4790535492: system.mem_ctrl: loc mem write is sent : 4921600
4790545492: system.mem_ctrl: locMemRecvTimingResp : 4921600
4790970000: system.mem_ctrl: recvTimingReq: request ReadExReq addr 0x4698c0 size 64
4790970000: system.mem_ctrl: NS: For Address 4626624 | Predicted Compressible = 0| IsHit = 0
4790970000: system.mem_ctrl: NS: For Address 4626624 | Adding normal tag for set index = 72291
4790970000: system.mem_ctrl: Policy manager accepted packet 4626624
4790970000: system.mem_ctrl: loc mem read is sent : 4626624
4791025000: system.mem_ctrl: locMemRecvTimingResp : 4626624
4791025000: system.mem_ctrl: far mem read is sent : 4626624
4791062492: system.mem_ctrl: farMemRecvTimingResp : 4626624 , ReadResp 
4791062492: system.mem_ctrl: farMemRecvTimingResp : continuing to far read resp: 1
4791062492: system.mem_ctrl: Responding to Address 4626624 
4791062492: system.mem_ctrl: latencyFactor = 1 
4791062492: system.mem_ctrl: Done
4791062492: system.mem_ctrl: loc mem write is sent : 4626624
4791072492: system.mem_ctrl: locMemRecvTimingResp : 4626624
4791153000: system.mem_ctrl: recvTimingReq: request ReadExReq addr 0x48d900 size 64
4791153000: system.mem_ctrl: NS: For Address 4774144 | Checking normal tag | isHit = 0
4791153000: system.mem_ctrl: NS: For Address 4774144 | Predicted Compressible = 1| IsHit = 0
4791153000: system.mem_ctrl: NS: For Address 4774144 | Adding tagBai for set index = 37298 and compressed index = 0
4791153000: system.mem_ctrl: Policy manager accepted packet 4774144
4791153000: system.mem_ctrl: loc mem read is sent : 4774144
4791208000: system.mem_ctrl: locMemRecvTimingResp : 4774144
4791208000: system.mem_ctrl: far mem read is sent : 4774144
4791245492: system.mem_ctrl: farMemRecvTimingResp : 4774144 , ReadResp 
4791245492: system.mem_ctrl: farMemRecvTimingResp : continuing to far read resp: 1
4791245492: system.mem_ctrl: Responding to Address 4774144 
4791245492: system.mem_ctrl: latencyFactor = 1 
4791245492: system.mem_ctrl: Done
4791245492: system.mem_ctrl: loc mem write is sent : 4774144
4791255492: system.mem_ctrl: locMemRecvTimingResp : 4774144
4791338000: system.mem_ctrl: recvTimingReq: request ReadExReq addr 0x4b1940 size 64
4791338000: system.mem_ctrl: NS: For Address 4921664 | Predicted Compressible = 0| IsHit = 0
4791338000: system.mem_ctrl: NS: For Address 4921664 | Adding normal tag for set index = 76901
4791338000: system.mem_ctrl: Policy manager accepted packet 4921664
4791338000: system.mem_ctrl: loc mem read is sent : 4921664
4791393000: system.mem_ctrl: locMemRecvTimingResp : 4921664
4791393000: system.mem_ctrl: far mem read is sent : 4921664
4791430492: system.mem_ctrl: farMemRecvTimingResp : 4921664 , ReadResp 
4791430492: system.mem_ctrl: farMemRecvTimingResp : continuing to far read resp: 1
4791430492: system.mem_ctrl: Responding to Address 4921664 
4791430492: system.mem_ctrl: latencyFactor = 1 
4791430492: system.mem_ctrl: Done
4791430492: system.mem_ctrl: loc mem write is sent : 4921664
4791440492: system.mem_ctrl: locMemRecvTimingResp : 4921664
4791857000: system.mem_ctrl: recvTimingReq: request ReadExReq addr 0x469900 size 64
4791857000: system.mem_ctrl: NS: For Address 4626688 | Checking normal tag | isHit = 0
4791857000: system.mem_ctrl: NS: For Address 4626688 | Predicted Compressible = 1| IsHit = 0
4791857000: system.mem_ctrl: NS: For Address 4626688 | Adding tagBai for set index = 36146 and compressed index = 0
4791857000: system.mem_ctrl: Policy manager accepted packet 4626688
4791857000: system.mem_ctrl: loc mem read is sent : 4626688
4791912000: system.mem_ctrl: locMemRecvTimingResp : 4626688
4791912000: system.mem_ctrl: far mem read is sent : 4626688
4791949492: system.mem_ctrl: farMemRecvTimingResp : 4626688 , ReadResp 
4791949492: system.mem_ctrl: farMemRecvTimingResp : continuing to far read resp: 1
4791949492: system.mem_ctrl: Responding to Address 4626688 
4791949492: system.mem_ctrl: latencyFactor = 1 
4791949492: system.mem_ctrl: Done
4791949492: system.mem_ctrl: loc mem write is sent : 4626688
4791959492: system.mem_ctrl: locMemRecvTimingResp : 4626688
4792040000: system.mem_ctrl: recvTimingReq: request ReadExReq addr 0x48d940 size 64
4792040000: system.mem_ctrl: NS: For Address 4774208 | Predicted Compressible = 0| IsHit = 0
4792040000: system.mem_ctrl: NS: For Address 4774208 | Adding normal tag for set index = 74597
4792040000: system.mem_ctrl: Policy manager accepted packet 4774208
4792040000: system.mem_ctrl: loc mem read is sent : 4774208
4792095000: system.mem_ctrl: locMemRecvTimingResp : 4774208
4792095000: system.mem_ctrl: far mem read is sent : 4774208
4792132492: system.mem_ctrl: farMemRecvTimingResp : 4774208 , ReadResp 
4792132492: system.mem_ctrl: farMemRecvTimingResp : continuing to far read resp: 1
4792132492: system.mem_ctrl: Responding to Address 4774208 
4792132492: system.mem_ctrl: latencyFactor = 1 
4792132492: system.mem_ctrl: Done
4792132492: system.mem_ctrl: loc mem write is sent : 4774208
4792142492: system.mem_ctrl: locMemRecvTimingResp : 4774208
4792225000: system.mem_ctrl: recvTimingReq: request ReadExReq addr 0x4b1980 size 64
4792225000: system.mem_ctrl: NS: For Address 4921728 | Checking normal tag | isHit = 0
4792225000: system.mem_ctrl: NS: For Address 4921728 | Predicted Compressible = 1| IsHit = 0
4792225000: system.mem_ctrl: NS: For Address 4921728 | Adding tagBai for set index = 38451 and compressed index = 0
4792225000: system.mem_ctrl: Policy manager accepted packet 4921728
4792225000: system.mem_ctrl: loc mem read is sent : 4921728
4792280000: system.mem_ctrl: locMemRecvTimingResp : 4921728
4792280000: system.mem_ctrl: far mem read is sent : 4921728
4792317492: system.mem_ctrl: farMemRecvTimingResp : 4921728 , ReadResp 
4792317492: system.mem_ctrl: farMemRecvTimingResp : continuing to far read resp: 1
4792317492: system.mem_ctrl: Responding to Address 4921728 
4792317492: system.mem_ctrl: latencyFactor = 1 
4792317492: system.mem_ctrl: Done
4792317492: system.mem_ctrl: loc mem write is sent : 4921728
4792327492: system.mem_ctrl: locMemRecvTimingResp : 4921728
4792500000: system.mem_ctrl: recvTimingReq: request ReadExReq addr 0x469940 size 64
4792500000: system.mem_ctrl: NS: For Address 4626752 | Predicted Compressible = 0| IsHit = 0
4792500000: system.mem_ctrl: NS: For Address 4626752 | Adding normal tag for set index = 72293
4792500000: system.mem_ctrl: Policy manager accepted packet 4626752
4792500000: system.mem_ctrl: loc mem read is sent : 4626752
4792555000: system.mem_ctrl: locMemRecvTimingResp : 4626752
4792555000: system.mem_ctrl: far mem read is sent : 4626752
4792592492: system.mem_ctrl: farMemRecvTimingResp : 4626752 , ReadResp 
4792592492: system.mem_ctrl: farMemRecvTimingResp : continuing to far read resp: 1
4792592492: system.mem_ctrl: Responding to Address 4626752 
4792592492: system.mem_ctrl: latencyFactor = 1 
4792592492: system.mem_ctrl: Done
4792592492: system.mem_ctrl: loc mem write is sent : 4626752
4792602492: system.mem_ctrl: locMemRecvTimingResp : 4626752
4792683000: system.mem_ctrl: recvTimingReq: request ReadExReq addr 0x48d980 size 64
4792683000: system.mem_ctrl: NS: For Address 4774272 | Checking normal tag | isHit = 0
4792683000: system.mem_ctrl: NS: For Address 4774272 | Predicted Compressible = 1| IsHit = 0
4792683000: system.mem_ctrl: NS: For Address 4774272 | Adding tagBai for set index = 37299 and compressed index = 0
4792683000: system.mem_ctrl: Policy manager accepted packet 4774272
4792683000: system.mem_ctrl: loc mem read is sent : 4774272
4792738000: system.mem_ctrl: locMemRecvTimingResp : 4774272
4792738000: system.mem_ctrl: far mem read is sent : 4774272
4792775492: system.mem_ctrl: farMemRecvTimingResp : 4774272 , ReadResp 
4792775492: system.mem_ctrl: farMemRecvTimingResp : continuing to far read resp: 1
4792775492: system.mem_ctrl: Responding to Address 4774272 
4792775492: system.mem_ctrl: latencyFactor = 1 
4792775492: system.mem_ctrl: Done
4792775492: system.mem_ctrl: loc mem write is sent : 4774272
4792785492: system.mem_ctrl: locMemRecvTimingResp : 4774272
4792868000: system.mem_ctrl: recvTimingReq: request ReadExReq addr 0x4b19c0 size 64
4792868000: system.mem_ctrl: NS: For Address 4921792 | Predicted Compressible = 0| IsHit = 0
4792868000: system.mem_ctrl: NS: For Address 4921792 | Adding normal tag for set index = 76903
4792868000: system.mem_ctrl: Policy manager accepted packet 4921792
4792868000: system.mem_ctrl: loc mem read is sent : 4921792
4792923000: system.mem_ctrl: locMemRecvTimingResp : 4921792
4792923000: system.mem_ctrl: far mem read is sent : 4921792
4792960492: system.mem_ctrl: farMemRecvTimingResp : 4921792 , ReadResp 
4792960492: system.mem_ctrl: farMemRecvTimingResp : continuing to far read resp: 1
4792960492: system.mem_ctrl: Responding to Address 4921792 
4792960492: system.mem_ctrl: latencyFactor = 1 
4792960492: system.mem_ctrl: Done
4792960492: system.mem_ctrl: loc mem write is sent : 4921792
4792970492: system.mem_ctrl: locMemRecvTimingResp : 4921792
4810515000: system.mem_ctrl: recvTimingReq: request ReadExReq addr 0x469980 size 64
4810515000: system.mem_ctrl: NS: For Address 4626816 | Checking normal tag | isHit = 0
4810515000: system.mem_ctrl: NS: For Address 4626816 | Predicted Compressible = 1| IsHit = 0
4810515000: system.mem_ctrl: NS: For Address 4626816 | Adding tagBai for set index = 36147 and compressed index = 0
4810515000: system.mem_ctrl: Policy manager accepted packet 4626816
4810515000: system.mem_ctrl: loc mem read is sent : 4626816
4810570000: system.mem_ctrl: locMemRecvTimingResp : 4626816
4810570000: system.mem_ctrl: far mem read is sent : 4626816
4810621652: system.mem_ctrl: farMemRecvTimingResp : 4626816 , ReadResp 
4810621652: system.mem_ctrl: farMemRecvTimingResp : continuing to far read resp: 1
4810621652: system.mem_ctrl: Responding to Address 4626816 
4810621652: system.mem_ctrl: latencyFactor = 1 
4810621652: system.mem_ctrl: Done
4810621652: system.mem_ctrl: loc mem write is sent : 4626816
4810631652: system.mem_ctrl: locMemRecvTimingResp : 4626816
4810748000: system.mem_ctrl: recvTimingReq: request ReadExReq addr 0x48d9c0 size 64
4810748000: system.mem_ctrl: NS: For Address 4774336 | Predicted Compressible = 0| IsHit = 0
4810748000: system.mem_ctrl: NS: For Address 4774336 | Adding normal tag for set index = 74599
4810748000: system.mem_ctrl: Policy manager accepted packet 4774336
4810748000: system.mem_ctrl: loc mem read is sent : 4774336
4810803000: system.mem_ctrl: locMemRecvTimingResp : 4774336
4810803000: system.mem_ctrl: far mem read is sent : 4774336
4810854652: system.mem_ctrl: farMemRecvTimingResp : 4774336 , ReadResp 
4810854652: system.mem_ctrl: farMemRecvTimingResp : continuing to far read resp: 1
4810854652: system.mem_ctrl: Responding to Address 4774336 
4810854652: system.mem_ctrl: latencyFactor = 1 
4810854652: system.mem_ctrl: Done
4810854652: system.mem_ctrl: loc mem write is sent : 4774336
4810864652: system.mem_ctrl: locMemRecvTimingResp : 4774336
4810965000: system.mem_ctrl: recvTimingReq: request ReadExReq addr 0x4b1a00 size 64
4810965000: system.mem_ctrl: NS: For Address 4921856 | Checking normal tag | isHit = 0
4810965000: system.mem_ctrl: NS: For Address 4921856 | Predicted Compressible = 1| IsHit = 0
4810965000: system.mem_ctrl: NS: For Address 4921856 | Adding tagBai for set index = 38452 and compressed index = 0
4810965000: system.mem_ctrl: Policy manager accepted packet 4921856
4810965000: system.mem_ctrl: loc mem read is sent : 4921856
4811143000: system.mem_ctrl: locMemRecvTimingResp : 4921856
4811143000: system.mem_ctrl: far mem read is sent : 4921856
4811194652: system.mem_ctrl: farMemRecvTimingResp : 4921856 , ReadResp 
4811194652: system.mem_ctrl: farMemRecvTimingResp : continuing to far read resp: 1
4811194652: system.mem_ctrl: Responding to Address 4921856 
4811194652: system.mem_ctrl: latencyFactor = 1 
4811194652: system.mem_ctrl: Done
4811194652: system.mem_ctrl: loc mem write is sent : 4921856
4811204652: system.mem_ctrl: locMemRecvTimingResp : 4921856
4829073000: system.mem_ctrl: recvTimingReq: request ReadExReq addr 0x4699c0 size 64
4829073000: system.mem_ctrl: NS: For Address 4626880 | Predicted Compressible = 0| IsHit = 0
4829073000: system.mem_ctrl: NS: For Address 4626880 | Adding normal tag for set index = 72295
4829073000: system.mem_ctrl: Policy manager accepted packet 4626880
4829073000: system.mem_ctrl: loc mem read is sent : 4626880
4829128000: system.mem_ctrl: locMemRecvTimingResp : 4626880
4829128000: system.mem_ctrl: far mem read is sent : 4626880
4829179652: system.mem_ctrl: farMemRecvTimingResp : 4626880 , ReadResp 
4829179652: system.mem_ctrl: farMemRecvTimingResp : continuing to far read resp: 1
4829179652: system.mem_ctrl: Responding to Address 4626880 
4829179652: system.mem_ctrl: latencyFactor = 1 
4829179652: system.mem_ctrl: Done
4829179652: system.mem_ctrl: loc mem write is sent : 4626880
4829189652: system.mem_ctrl: locMemRecvTimingResp : 4626880
4829270000: system.mem_ctrl: recvTimingReq: request ReadExReq addr 0x48da00 size 64
4829270000: system.mem_ctrl: NS: For Address 4774400 | Checking normal tag | isHit = 0
4829270000: system.mem_ctrl: NS: For Address 4774400 | Predicted Compressible = 1| IsHit = 0
4829270000: system.mem_ctrl: NS: For Address 4774400 | Adding tagBai for set index = 37300 and compressed index = 0
4829270000: system.mem_ctrl: Policy manager accepted packet 4774400
4829270000: system.mem_ctrl: loc mem read is sent : 4774400
4829325000: system.mem_ctrl: locMemRecvTimingResp : 4774400
4829325000: system.mem_ctrl: far mem read is sent : 4774400
4829376652: system.mem_ctrl: farMemRecvTimingResp : 4774400 , ReadResp 
4829376652: system.mem_ctrl: farMemRecvTimingResp : continuing to far read resp: 1
4829376652: system.mem_ctrl: Responding to Address 4774400 
4829376652: system.mem_ctrl: latencyFactor = 1 
4829376652: system.mem_ctrl: Done
4829376652: system.mem_ctrl: loc mem write is sent : 4774400
4829386652: system.mem_ctrl: locMemRecvTimingResp : 4774400
4829467000: system.mem_ctrl: recvTimingReq: request ReadExReq addr 0x4b1a40 size 64
4829467000: system.mem_ctrl: NS: For Address 4921920 | Predicted Compressible = 0| IsHit = 0
4829467000: system.mem_ctrl: NS: For Address 4921920 | Adding normal tag for set index = 76905
4829467000: system.mem_ctrl: Policy manager accepted packet 4921920
4829467000: system.mem_ctrl: loc mem read is sent : 4921920
4829522000: system.mem_ctrl: locMemRecvTimingResp : 4921920
4829522000: system.mem_ctrl: far mem read is sent : 4921920
4829573652: system.mem_ctrl: farMemRecvTimingResp : 4921920 , ReadResp 
4829573652: system.mem_ctrl: farMemRecvTimingResp : continuing to far read resp: 1
4829573652: system.mem_ctrl: Responding to Address 4921920 
4829573652: system.mem_ctrl: latencyFactor = 1 
4829573652: system.mem_ctrl: Done
4829573652: system.mem_ctrl: loc mem write is sent : 4921920
4829583652: system.mem_ctrl: locMemRecvTimingResp : 4921920
